          40
 Energy =  -1391.09918980 a.u.  #Cluster:    1
C          17.69833000     11.30488700      8.64136000
C          18.85222600     11.11517600      7.87704500
C          18.76561300     10.39551000      6.67784100
C          17.53141000      9.87465500      6.28834300
C          16.40667200     10.06854800      7.08489600
H          19.65113600     10.25582000      6.04747900
H          17.72668400     11.89950200      9.57433000
H          17.42751200      9.35421200      5.33269800
H          15.42041500      9.67296500      6.79930300
C          20.12659000     11.72448700      8.33153300
H          20.89063400     11.74256700      7.53646600
H          19.98576800     12.78759900      8.61074500
H          20.55247100     11.20702000      9.20038200
N          16.50580200     10.77725400      8.24664200
C          15.29847600     10.98238700      9.08113800
H          14.89530300      9.98333400      9.36379100
H          15.58722300     11.49088800     10.03837500
C          14.22010700     11.81361500      8.36616000
H          14.14240500     11.53429200      7.29106200
H          13.23187200     11.56055200      8.80331400
C          14.45398800     13.31740300      8.48516300
H          13.55726600     13.87612100      8.15022400
H          14.63415700     13.62300700      9.53279100
C          15.63538100     13.71578300      7.59922300
O          15.41251100     13.90604600      6.39436800
O          16.76239800     13.78044400      8.15075100
P          18.59196900     13.52786000      5.12531900
O          18.34415000     12.09280200      4.92726900
O          18.99607400     13.93835100      6.60722900
H          18.12115700     13.93473900      7.21121000
O          19.85204100     13.99244200      4.26765100
H          19.97060700     15.00719100      4.42725000
O          17.43593300     14.51441300      4.68618900
H          16.60206000     14.34462000      5.33736600
O          16.85167800     13.42629900     10.79038300
H          16.80323100     13.64600700      9.82242700
H          17.20893100     14.20178500     11.20260100
O          15.30982000     11.37527900      5.11147900
H          15.16866000     12.27278200      5.46156500
H          16.17137500     11.45137700      4.68664600
          40
 Energy =  -1391.09864050 a.u.  #Cluster:    2
C          17.73657200     11.27801300      8.53581900
C          18.87217700     11.06997500      7.74941800
C          18.75068000     10.34898800      6.55343600
C          17.50376200      9.83786700      6.19504100
C          16.39938000     10.04369600      7.01770300
H          19.61966800     10.20202100      5.90223500
H          17.79125300     11.87990500      9.45799600
H          17.37205000      9.31455000      5.24445700
H          15.40441300      9.65249200      6.75654700
C          20.16514000     11.65889300      8.17760600
H          20.61432400     11.11580000      9.01874200
H          20.90376700     11.68920500      7.35887200
H          20.04479600     12.71612700      8.48622200
N          16.53001600     10.75816700      8.17190700
C          15.34648900     10.97358200      9.03804500
H          14.97769200      9.97865500      9.37644000
H          15.65627500     11.53042500      9.96183600
C          14.22394600     11.75106200      8.33058600
H          14.13184500     11.44831200      7.26334900
H          13.25475500     11.47498400      8.79543800
C          14.41055300     13.26390100      8.41457100
H          13.50464800     13.78714900      8.04881900
H          14.56178000     13.60154100      9.45694700
C          15.59982100     13.66904600      7.54267800
O          15.38326500     13.88845800      6.34141400
O          16.72519800     13.70359100      8.09999400
P          18.55512600     13.51193400      5.06603000
O          18.30547000     12.08101600      4.84129300
O          18.95513000     13.89362400      6.55697100
H          18.07964100     13.87902200      7.16022100
O          19.82065500     13.98802700      4.22257400
H          19.94429600     14.99822700      4.40465200
O          17.40430100     14.50994000      4.64097100
H          16.56926100     14.33434100      5.29013200
O          16.72263300     13.56785600     10.78683300
H          16.72512300     13.68238900      9.80456300
H          17.02628600     14.39793100     11.13111500
O          15.27929300     11.35253400      5.06713600
H          15.13071200     12.25019700      5.41398200
H          16.13784300     11.43658100      4.63742400
          40
 Energy =  -1391.09685470 a.u.  #Cluster:    3
C          17.28651500     11.40046100      8.78694400
C          18.55130900     11.04527800      8.31397100
C          18.65146800     10.21585400      7.18826600
C          17.48315700      9.76532000      6.57412200
C          16.23905500     10.13376600      7.07937700
H          19.63258700      9.93939700      6.78641200
H          17.17452900     12.08117700      9.65212600
H          17.53400000      9.16486600      5.66217200
H          15.30291000      9.81442600      6.59352500
C          19.75402600     11.59948200      8.98306100
H          20.68769400     11.33725400      8.46143800
H          19.72800700     12.70894000      8.98315500
H          19.84487200     11.27422500     10.02709400
N          16.15819000     10.93374700      8.18095200
C          14.82927300     11.29636800      8.72799100
H          14.30219600     10.35627700      9.01009900
H          14.96285300     11.88259300      9.67516800
C          13.97716400     12.11160800      7.74174100
H          14.07293900     11.71968500      6.70445200
H          12.90728000     11.97529900      8.00435500
C          14.31425300     13.60026600      7.75729700
H          13.55187900     14.17602600      7.19550700
H          14.31507300     14.00991700      8.78466700
C          15.67470600     13.81465100      7.09249200
O          15.70719200     13.86136000      5.85317400
O          16.67327800     13.88475300      7.85072900
P          19.03209400     13.14474400      5.31664300
O          18.71214700     11.71221100      5.24805700
O          19.16955500     13.73506800      6.78625200
H          18.19607700     13.85078100      7.19811100
O          20.46828400     13.41970700      4.68340000
H          20.63840800     14.43755000      4.74654100
O          18.06563300     14.12142700      4.53204800
H          17.11164300     14.09022700      5.01900500
O          16.22440800     13.80106300     10.47553100
H          16.38115000     13.91790400      9.50090000
H          16.56656500     14.58879000     10.87704200
O          15.62263700     11.21174300      4.85342800
H          15.50343000     12.15294400      5.07845400
H          16.54159800     11.18287300      4.56431200
          40
 Energy =  -1391.09650580 a.u.  #Cluster:    4
C          17.60935700     11.29618600      8.59685800
C          18.72698700     10.91520600      7.85178500
C          18.54572900     10.14145500      6.69646100
C          17.25420900      9.76499200      6.33080800
C          16.16448500     10.15237800      7.10717700
H          19.40446800      9.85249100      6.08054000
H          17.71617300     11.93880000      9.48606700
H          17.08049100      9.20902300      5.40596900
H          15.13327300      9.88897100      6.82198900
C          20.07060800     11.38287900      8.27359700
H          20.83887900     11.20639700      7.50322100
H          20.07898400     12.47979000      8.43503400
H          20.40799900     10.90891700      9.20394100
N          16.35653000     10.90083300      8.23025700
C          15.19482800     11.28430200      9.06768000
H          14.72622700     10.35145800      9.45635900
H          15.55427000     11.85847600      9.96261000
C          14.15771400     12.12955000      8.31015600
H          14.02454600     11.76878600      7.26608300
H          13.16807400     11.99061500      8.79321400
C          14.50630000     13.61571800      8.29456700
H          13.66395700     14.20757000      7.88443500
H          14.68923200     14.00470900      9.31373600
C          15.73575000     13.82952100      7.41082700
O          15.54843900     13.97378600      6.19289300
O          16.85545000     13.79341900      7.97831900
P          18.67167200     13.18879900      4.99285800
O          18.28059400     11.77684900      4.87823100
O          19.10047700     13.64924000      6.45304300
H          18.22496100     13.76442600      7.04564700
O          19.98200500     13.46839600      4.12991500
H          20.20521300     14.47274800      4.23338500
O          17.62752000     14.25817800      4.47507800
H          16.77668000     14.21897000      5.12634700
O          16.82482700     13.82585900     10.66875500
H          16.84558500     13.87622600      9.68130400
H          17.21412700     14.63901900     10.96362300
O          15.16742400     11.37978400      5.11391600
H          15.12693400     12.31162100      5.39824300
H          16.00904100     11.34367700      4.64508700
          40
 Energy =  -1391.08854380 a.u.  #Cluster:    5
C          17.55151600     11.24846400      8.54851900
C          18.49380200     10.73914600      7.64569500
C          18.04857000     10.03535900      6.52194700
C          16.67336200      9.86468100      6.32701100
C          15.77235500     10.37917300      7.25099100
H          18.76198600      9.63897700      5.78845100
H          17.87273200     11.83890000      9.42322200
H          16.30782800      9.35891700      5.42548500
H          14.69033100     10.27752100      7.11447200
C          19.93261400     11.01401400      7.87354100
H          20.23370200     10.90135300      8.92293000
H          20.59159000     10.38111600      7.26301100
H          20.16924000     12.06267300      7.58355000
N          16.22206500     11.04536000      8.35504800
C          15.24997300     11.50809300      9.37298800
H          14.72331600     10.61408400      9.77827900
H          15.80471100     11.96529100     10.23580300
C          14.23804000     12.52916600      8.82657600
H          14.01095700     12.34436500      7.75442800
H          13.27544600     12.40120800      9.36232400
C          14.72360400     13.96814300      8.99140400
H          13.89610100     14.68369300      8.82010700
H          15.09938500     14.16799000     10.01103700
C          15.81989600     14.21350300      7.95202400
O          15.47822300     14.66252300      6.85543000
O          16.99135800     13.88493500      8.28799900
P          18.00664900     13.23649500      5.01686900
O          17.51594000     11.84933200      5.09201000
O          18.78652500     13.72630900      6.30700700
H          18.07707500     13.84985300      7.10771300
O          19.10805000     13.33251200      3.86241500
H          19.42818400     14.31211400      3.82253600
O          16.95522700     14.34656500      4.64006600
H          16.33787600     14.51859300      5.51276800
O          17.42035100     13.65290900     10.92610500
H          17.27989100     13.79729700      9.95606000
H          17.94880200     14.38818500     11.20798000
O          17.85000200      9.49185900      3.41006400
H          18.11882900      9.76273000      2.53643400
H          17.73392700     10.32661800      3.88971400
          40
 Energy =  -1391.08726020 a.u.  #Cluster:    6
C          17.56807000     11.36431600      8.63696600
C          18.75755100     11.00698300      7.98639100
C          18.69142400     10.12115300      6.89226200
C          17.45526100      9.60926100      6.49614300
C          16.28615800      9.99886900      7.15776500
H          19.59547800      9.86808100      6.33095500
H          17.57079600     12.09553800      9.47909900
H          17.38103400      8.95147300      5.62487000
H          15.29556300      9.66891200      6.80464300
C          20.04011400     11.61786300      8.41810000
H          20.10370600     12.66136000      8.02571700
H          20.14307600     11.68417500      9.50838600
H          20.92224100     11.09282000      8.03003400
N          16.35741700     10.86515800      8.22180200
C          15.10728000     11.27177600      8.94069200
H          14.62370100     10.35469500      9.34632700
H          15.38684700     11.90437600      9.83161500
C          14.13195200     12.04244800      8.04168700
H          14.18048100     11.67186700      6.98638000
H          13.09618700     11.82760300      8.37694600
C          14.35997500     13.55340100      8.05758400
H          13.48502700     14.07150300      7.61151500
H          14.44543600     13.93465900      9.09579800
C          15.60222300     13.92820700      7.26146000
O          15.54433500     13.93656700      6.01161300
O          16.65735900     14.20261400      7.91886300
P          18.54162300     13.27693700      5.16438900
O          18.06488800     11.87455400      5.09454100
O          18.89859900     13.82473600      6.65296300
H          18.06110100     14.18279700      7.23481300
O          19.95752500     13.50971800      4.37012700
H          20.24052700     14.45820100      4.25910500
O          17.60263300     14.43648900      4.53015700
H          16.63435700     14.53089100      4.95372900
O          16.60274700     13.48751500     10.45514000
H          16.62325000     14.00129200      9.59005800
H          16.94070200     14.06876300     11.12062100
O          15.25685800     11.34904500      5.16816500
H          14.98920700     12.28673200      5.15871600
H          16.19732300     11.36667700      4.88387400
          40
 Energy =  -1391.08145270 a.u.  #Cluster:    7
C          17.33023200     11.20287400      8.57123500
C          18.19621500     10.74811100      7.56342900
C          17.64128300     10.16076300      6.41060600
C          16.25612700     10.04931500      6.29484800
C          15.42320700     10.50362600      7.32005300
H          18.30402000      9.82785400      5.57308900
H          17.72562200     11.72473000      9.47383600
H          15.81366500      9.62457300      5.38836200
H          14.33106200     10.44314200      7.23715400
C          19.65891200     10.94580700      7.70889900
H          20.23831700     10.41108600      6.94080000
H          19.90403100     12.02554100      7.56752100
H          20.04490400     10.64960900      8.69100500
N          15.96916100     11.07152700      8.44642500
C          15.08014900     11.56838200      9.54522100
H          14.57195500     10.69313300     10.00907100
H          15.72211400     12.03328900     10.34924400
C          14.05159200     12.59983700      9.05987000
H          13.58372700     12.28707100      8.10079200
H          13.22211200     12.63976300      9.79765300
C          14.64446300     13.99781300      8.89429000
H          13.84448400     14.72781400      8.65116600
H          15.10351300     14.35313900      9.84061800
C          15.67941100     14.02531900      7.77703300
O          15.32845000     13.71422700      6.61652800
O          16.87020000     14.32620100      8.10719700
P          18.41746100     13.33569300      4.96145400
O          18.54046000     11.91156100      4.56864200
O          18.76861400     13.57501000      6.52521300
H          18.04406100     14.10351100      7.12749700
O          19.45965400     14.29228500      4.12242500
H          19.19528500     15.24476700      4.02565300
O          17.04231500     14.13439100      4.70039300
H          16.21901100     13.98395300      5.38735700
O          17.37877100     13.34831900     10.53068700
H          17.30541800     13.93172000      9.71624000
H          18.00226600     13.77282800     11.10429100
O          19.23718800      9.71221500      3.89587000
H          19.84052900     10.42280500      4.17363700
H          18.52007900     10.19641800      3.45470800
