          32
 G =       -0.506108 Gcorr = 0.164004 a.u. Nimag =   0 Frame:     1 Step:     1 Geom:     1
C           7.26851700     14.49974300     11.62542500
C           7.74787300     13.33483500     10.93910000
C           7.18638500     12.08159000     11.19838600
C           6.16959500     12.01863700     12.13569800
C           5.70690400     13.16866300     12.80988500
C           6.24293600     14.42275200     12.56948800
H           7.54213400     11.20162900     10.66875300
H           5.70367200     11.06070100     12.36114700
H           4.90090800     13.05875700     13.53459000
H           5.88249600     15.30709600     13.08249100
H           7.78364600     16.55079700     11.25193100
C           8.90063200     15.04664400     10.18167200
H           9.60672100     15.66068700      9.63516400
N           8.03428000     15.57251600     11.14859700
N           8.76098800     13.72127600     10.04904400
P           6.37326900     14.44235800      7.44249400
O           5.89146600     14.98898400      8.71168000
O           7.85842400     13.87108000      7.39366000
H           8.13067700     13.43435600      8.30565300
O           5.42164100     13.26402100      6.96699100
H           5.73398800     12.96033200      6.03205000
O           6.39020300     15.43838100      6.20564900
H           7.35891400     15.83247800      6.10040500
O           9.03117300     16.44817000      6.09043500
H           9.10729000     16.95134400      6.91796000
H           9.50594900     15.62911100      6.26453000
O           9.15699200     17.82211000      8.58326700
H           9.30071200     18.76173800      8.50771300
H           8.30563000     17.72346600      9.03885000
O           6.74285300     17.43088900      9.99863100
H           5.99029100     18.01935100     10.00727000
H           6.42285300     16.61552900      9.55139600
          32
 G =       -0.495628 Gcorr = 0.154284 a.u. Nimag =   0 Frame:     2 Step:     2 Geom:     2
C           8.53885300     14.43311200     11.73612300
C           7.58463100     14.21496200     10.68570000
C           6.20427700     14.30535600     10.95476800
C           5.81986000     14.60671300     12.24734400
C           6.77286700     14.81616800     13.28169700
C           8.13479300     14.73490200     13.04964400
H           5.48400600     14.15795600     10.13992700
H           4.76041800     14.69380600     12.49219900
H           6.40723200     15.05064300     14.28236900
H           8.86303500     14.89848500     13.83797500
H          10.69384200     14.40014000     11.60650900
C           9.59905200     13.99521900      9.78388600
H          10.40663800     13.85024300      9.06813600
N           9.81063800     14.28425000     11.14215100
N           8.27824900     13.94090300      9.48457300
P           7.45255000     14.09410000      7.34312200
O           6.19565600     14.55156300      8.00805700
O           7.95235600     12.51866100      7.38416400
H           7.86365800     12.01966400      8.22947000
O           7.14660500     14.02887900      5.71601600
H           7.82801800     13.59489900      5.15142700
O           8.75592200     15.05707300      7.27779200
H           8.75832400     15.92442500      7.91076900
O           8.65443500     17.09533600      8.94327700
H           8.04917300     16.76657200      9.65564600
H           8.08740700     17.74191600      8.46899800
O           6.28230600     17.14442200      9.14390600
H           5.96302700     16.30239000      8.69396100
H           5.49504400     17.49930400      9.55273700
O           4.21903000     15.70168500      8.68085400
H           4.37753200     15.55887200      7.72922500
H           4.53057400     14.86740200      9.08759000
          32
 G =       -0.502542 Gcorr = 0.162452 a.u. Nimag =   0 Frame:     3 Step:     4 Geom:     4
C           7.79323300     13.65334500     11.78669500
C           8.46204600     14.24108100     10.66081800
C           8.49660500     15.63173200     10.50766700
C           7.85791300     16.39569900     11.46804800
C           7.21008000     15.81008900     12.57730300
C           7.16657000     14.43800400     12.75826000
H           9.00137500     16.08799000      9.65236700
H           7.84093700     17.48352000     11.36031800
H           6.73122100     16.46555900     13.30649200
H           6.67499500     13.99153700     13.61590200
H           7.57857000     11.57845600     12.25535300
C           8.63931000     12.06070100     10.43929600
H           8.87079100     11.07408500     10.06237900
N           7.91982800     12.26874800     11.62705400
N           8.97264600     13.21405400      9.85781900
P           7.45830400     14.36936700      6.88411100
O           6.19941600     14.04514200      7.56008200
O           8.66764900     13.35959600      7.03294800
H           9.02638100     13.41931800      8.02986800
O           7.24546800     14.41407800      5.30826000
H           8.16410900     14.59374400      4.87350000
O           8.13880300     15.76548900      7.23510500
H           7.53261300     16.33999200      7.85212500
O           6.59415300     17.33394200      9.01764500
H           6.13157000     16.64753100      9.52511100
H           5.88458800     17.71127700      8.47140400
O           4.10548400     16.90636500      7.91788800
H           4.16240100     16.29820800      8.66376000
H           4.23649700     16.34832400      7.14637800
O           5.09608200     15.08206900     10.06727600
H           5.58095800     14.76468600     10.83096000
H           5.42941100     14.56629700      9.31782400
          32
 G =       -0.509503 Gcorr = 0.163017 a.u. Nimag =   0 Frame:     4 Step:     5 Geom:     5
C           7.14475900     14.35816500     11.32835700
C           8.36448300     14.01183400     10.65878000
C           9.40770400     14.94094100     10.56622600
C           9.21406700     16.17706500     11.15532200
C           8.01499300     16.50420900     11.82729600
C           6.96534100     15.60895700     11.92596100
H          10.31893200     14.69098500     10.02562100
H           9.99558500     16.93224400     11.09212100
H           7.91931900     17.49765800     12.26390800
H           6.03998400     15.85996700     12.42998500
H           5.32528400     13.22769300     11.47581200
C           7.00441300     12.29706700     10.45414500
H           6.58129600     11.34148500     10.18102700
N           6.30542400     13.24729400     11.20244000
N           8.23657400     12.71819700     10.13685200
P           8.03637600     14.07166800      7.04480500
O           6.58052700     13.97474800      7.19611500
O           8.90671800     12.79038200      7.36146400
H           8.84905100     12.60574100      8.41221000
O           8.40505600     14.37877200      5.52656900
H           9.42959300     14.31775600      5.43157100
O           8.78325100     15.19463800      7.89388400
H           8.13170800     15.95408900      8.15346700
O           6.90323400     17.31414000      8.53858300
H           6.11283500     16.78788700      8.72525600
H           6.71084100     17.76096900      7.71488800
O           3.87784200     14.24069200     11.11899000
H           4.13396400     14.66236000     10.27875600
H           3.57722500     14.95141300     11.67844500
O           4.65297500     15.47096800      8.70896600
H           3.95103400     15.49223900      8.05632400
H           5.32962200     14.88779800      8.30586600
          32
 G =       -0.506957 Gcorr = 0.163937 a.u. Nimag =   1 Frame:     5 Step:     6 Geom:     6
C           7.46067600     14.82924000     11.25234400
C           8.61811800     14.05118800     10.91787000
C           9.90082500     14.56338500     11.13849700
C           9.99700900     15.83053600     11.68473500
C           8.85216500     16.59435400     12.00171200
C           7.57198100     16.11407600     11.78964600
H          10.77665400     13.97774800     10.87222600
H          10.97790600     16.26525600     11.86794600
H           8.98966500     17.59341000     12.41241400
H           6.69181000     16.71311300     11.99923800
H           5.38976100     14.34613900     10.93075900
C           6.85701200     12.85940200     10.35991400
H           6.21745700     12.07645800      9.97651500
N           6.35505000     14.04063400     10.91300400
N           8.19789900     12.83648600     10.35791100
P           7.97057000     14.20141800      7.22636600
O           6.56047800     13.83671300      7.38016300
O           9.05504400     13.10736900      7.59492700
H           8.90234900     12.81324300      8.60165200
O           8.31580600     14.51164500      5.70345300
H           9.32836100     14.71009700      5.64855700
O           8.47262600     15.49458600      8.00351300
H           7.68833200     15.92780900      8.52550500
O           6.26829200     16.87306800      9.33201900
H           5.90447000     17.38610300      8.61050700
H           5.55828600     16.27189000      9.59082200
O           4.01930200     15.11458500     10.04812900
H           3.85295400     14.57558800      9.24535500
H           3.16577000     15.26945300     10.44193200
O           3.66413600     13.59725000      7.79207500
H           3.31855300     13.98755200      6.98843700
H           4.61069400     13.49023000      7.61186500
          32
 G =       -0.511976 Gcorr = 0.164053 a.u. Nimag =   0 Frame:     6 Step:     7 Geom:     7
C           7.16028700     14.55047400     11.40364700
C           8.44720500     14.29224700     10.82075400
C           9.48464500     15.21873900     10.97254300
C           9.21766700     16.36513300     11.69909900
C           7.94880700     16.60892100     12.27191600
C           6.90316700     15.71461400     12.13259000
H          10.45692000     15.02909400     10.52227200
H          10.00169700     17.10827000     11.84083600
H           7.80024200     17.52903000     12.83675200
H           5.91889700     15.89404000     12.56049000
H           5.36530600     13.38772000     11.27696400
C           7.14161900     12.60625900     10.28689900
H           6.76105400     11.69208000      9.85042300
N           6.35709100     13.45948800     11.06458300
N           8.39235000     13.07095700     10.14252300
P           7.88286700     13.95529400      6.92708500
O           6.57420700     13.75779400      7.56740600
O           9.05851200     12.99575200      7.37338800
H           9.06657200     12.94609800      8.43511500
O           7.79691800     13.67697600      5.36223800
H           8.74696000     13.80669100      4.97426600
O           8.53048600     15.40499900      6.99093600
H           8.04076300     15.99978100      7.68706200
O           7.23293800     17.05619500      8.92688300
H           7.59514800     16.83343000      9.79017100
H           6.33434300     16.69939100      8.93168900
O           3.99413700     14.55966500     11.18424300
H           4.21083800     15.01532600     10.35368300
H           3.04941300     14.43676900     11.17597800
O           4.74795200     15.65523400      8.68669400
H           4.24474800     15.97607300      7.93875500
H           5.33625400     14.96747700      8.31212800
          32
 G =       -0.509535 Gcorr = 0.164698 a.u. Nimag =   0 Frame:     7 Step:     8 Geom:     8
C           7.37084400     14.82002200     11.49300500
C           8.56505300     14.24544800     10.93939600
C           9.81320200     14.81341900     11.21426800
C           9.84238600     15.93152000     12.02833500
C           8.66439300     16.48756600     12.57296500
C           7.41638600     15.94664700     12.31820900
H          10.71659300     14.37960700     10.78998100
H          10.79621300     16.40272100     12.26374400
H           8.75012900     17.36707400     13.21137500
H           6.51102200     16.37025300     12.74093900
H           5.33137600     14.28072700     11.10119500
C           6.87415000     13.04535400     10.21054200
H           6.27650100     12.30272500      9.69422800
N           6.31318000     14.02937900     11.03227800
N           8.20952500     13.14404300     10.15325500
P           7.66651100     14.03293000      6.81509300
O           6.44943300     13.45062700      7.39847200
O           9.04417100     13.62637300      7.48225700
H           8.85651100     13.14910500      8.40737800
O           7.84484500     13.60202300      5.29416600
H           8.71913500     14.03649700      4.95202000
O           7.73306800     15.61431000      6.70854500
H           7.37727400     16.03425600      7.59502200
O           6.76448100     16.77695900      9.14816700
H           7.42968200     16.63220400      9.82586700
H           5.97381000     16.32167600      9.46793600
O           4.33281100     15.41475900     10.10265100
H           4.09331200     15.02313700      9.23072200
H           3.63876700     16.03933400     10.29751700
O           3.73347000     14.32945700      7.67646300
H           3.29108400     13.48833800      7.58510800
H           4.65069100     14.15153300      7.38892000
          32
 G =       -0.508974 Gcorr = 0.162506 a.u. Nimag =   0 Frame:     8 Step:     9 Geom:     9
C           7.55057800     14.80724000     11.28667700
C           8.72973000     14.08341700     10.90851400
C           9.99388300     14.65871600     11.07194300
C          10.05104900     15.93426400     11.60431800
C           8.88481000     16.64426600     11.96445700
C           7.62174200     16.10013300     11.81089900
H          10.88547200     14.11318100     10.77480000
H          11.01649100     16.41747600     11.74301400
H           8.99027600     17.65259100     12.36183500
H           6.72339000     16.65670300     12.05651900
H           5.49511900     14.22633900     11.04456500
C           7.00650800     12.80345400     10.43329400
H           6.39055100     11.98887900     10.07857000
N           6.47127900     13.96241300     11.00135800
N           8.34639000     12.84441100     10.37605000
P           7.80745700     14.07076200      7.24781000
O           6.46089100     13.65048300      7.65630000
O           8.99522900     13.07077800      7.55577200
H           8.94608600     12.80901900      8.58392900
O           7.90348400     14.23634100      5.66780300
H           8.87759700     14.49591200      5.44063500
O           8.33760900     15.46021200      7.80758000
H           7.62241200     15.89967200      8.41848100
O           6.30888200     16.85577200      9.34610600
H           5.85721800     17.35336000      8.66399500
H           5.64030100     16.25078800      9.69510700
O           4.14008800     15.11545700     10.25017500
H           3.32203700     15.44748500     10.60625600
H           3.93867800     14.81929600      9.33505800
O           3.70339400     14.40267100      7.65357900
H           3.30090000     13.56675600      7.42048300
H           4.65047700     14.27177400      7.45412600
          32
 G =       -0.497133 Gcorr = 0.153995 a.u. Nimag =   0 Frame:     9 Step:    10 Geom:    10
C           7.56291900     14.91431500     11.93034600
C           8.22607600     14.97556500     10.66015600
C           9.40005400     15.73928000     10.50746000
C           9.88146900     16.39867600     11.62418700
C           9.22427100     16.32285800     12.88184000
C           8.06280100     15.58990300     13.05775400
H           9.88165300     15.81431100      9.52986400
H          10.78570000     17.00320700     11.54752200
H           9.65296900     16.86700200     13.72408300
H           7.55421000     15.53947100     14.01527000
H           5.73627600     13.87426600     12.42823300
C           6.43376100     13.69460400     10.38912200
H           5.65712100     13.05173700      9.95742800
N           6.42955100     14.09429600     11.73539300
N           7.49957000     14.19767600      9.72317500
P           7.72172000     14.23289300      7.45291600
O           6.27567500     13.83136300      7.49148400
O           8.97672400     13.23461400      7.84917900
H           9.13511700     12.98451200      8.78714300
O           8.16414000     14.18674400      5.85484700
H           9.12606100     14.07175400      5.66603800
O           8.09268200     15.77096700      7.77068100
H           7.36187200     16.33733000      8.34247800
O           6.05295000     16.95032800      8.86971500
H           5.81913300     17.62993300      8.23636200
H           5.33352400     16.22007800      8.73995200
O           4.32116600     15.24255700      7.98363100
H           4.34861400     14.38709700      8.49053400
H           4.83620700     15.01517600      7.17167900
O           4.38823600     12.53563100      8.49382600
H           3.63840400     12.25877700      7.97950200
H           5.16938400     12.52310800      7.87821300
          32
 G =       -0.493738 Gcorr = 0.154201 a.u. Nimag =   0 Frame:    10 Step:    11 Geom:    11
C           7.42353600     14.41723800     12.02912200
C           8.15895500     14.61973700     10.81360600
C           9.24358400     15.51724300     10.77751200
C           9.56402000     16.17594600     11.95135500
C           8.83471500     15.96582700     13.15262300
C           7.76138200     15.09309900     13.21483100
H           9.78821100     15.68125200      9.84683800
H          10.39532300     16.88144900     11.96670800
H           9.13612000     16.51617100     14.04465100
H           7.20036300     14.93621800     14.13100300
H           5.70093400     13.15275900     12.34926500
C           6.55162700     13.15143000     10.36258900
H           5.88026900     12.46406400      9.83279400
N           6.41201000     13.48056600     11.71932600
N           7.59523700     13.80876900      9.79934600
P           7.73191900     14.04998800      7.59011000
O           6.68451300     12.98263700      7.54942700
O           9.30956500     13.64454900      7.88325600
H           9.51232200     13.06120000      8.65232400
O           8.11205600     14.54169500      6.04000000
H           8.95589800     14.22179800      5.65487600
O           7.30296700     15.53407200      8.08267100
H           7.04510800     16.25504700      7.28151300
O           5.99652200     17.33403900      7.13611100
H           6.34684300     18.05216100      7.67274500
H           5.30179200     16.88608600      7.74887300
O           5.05105400     16.13567500      9.18505900
H           5.97797600     15.91445900      9.40936700
H           4.62718800     15.25592100      8.99152800
O           4.35513900     13.55972400      8.62576400
H           3.56704500     13.42055200      8.11463900
H           5.12581800     13.27865200      8.02017900
          32
 G =       -0.509870 Gcorr = 0.166236 a.u. Nimag =   0 Frame:    11 Step:    12 Geom:    12
C           7.40976500     14.22336400     11.37331800
C           8.71155500     14.18365400     10.76923000
C           9.47067700     13.01039100     10.80955000
C           8.92131000     11.91361100     11.45051800
C           7.64470500     11.96339100     12.05017300
C           6.87032100     13.11079300     12.02335100
H          10.45409000     12.97846100     10.34441700
H           9.48394900     10.98197100     11.50239600
H           7.26764200     11.07081600     12.54945700
H           5.88922500     13.15420400     12.48516300
H           5.95056600     15.78698300     11.29182900
C           7.90137200     16.19899400     10.42651200
H           7.78226300     17.22910700     10.10852600
N           6.92283000     15.51734100     11.15947700
N           8.97695400     15.43279800     10.19582900
P           7.79295000     15.26552500      6.93127000
O           6.92919200     14.09115100      7.03513300
O           9.31341900     15.13015900      7.35023800
H           9.40433900     15.33200600      8.38840500
O           7.88255700     15.74081200      5.41664600
H           8.58251300     16.49445500      5.35903100
O           7.34671800     16.55100700      7.76752900
H           6.31889600     16.61637700      7.83463600
O           4.55439200     16.65481100      8.24558800
H           4.13215000     16.13182200      7.56242200
H           4.48972500     16.11855500      9.05005900
O           4.49459800     14.96513900     10.55454200
H           3.65793400     14.70051800     10.92586500
H           4.86694400     14.15367900     10.12292200
O           5.52669900     12.80218900      9.30466100
H           6.26875500     12.41543500      9.78389600
H           5.93100200     13.16050400      8.49742600
          32
 G =       -0.509872 Gcorr = 0.166235 a.u. Nimag =   0 Frame:    12 Step:    13 Geom:    13
C           7.46083700     14.44647400     11.35047300
C           8.75613900     14.36045100     10.73731300
C           9.52878000     13.20458600     10.88377700
C           8.99907400     12.17103300     11.63663900
C           7.72889800     12.26698600     12.24426900
C           6.94138800     13.39825300     12.11381800
H          10.50703900     13.13668600     10.41167200
H           9.57272800     11.25478600     11.77308400
H           7.36765000     11.42443400     12.83396400
H           5.96520400     13.47730000     12.58135200
H           5.98335200     15.97992700     11.13400300
C           7.91911300     16.32340700     10.20673000
H           7.78452700     17.31540800      9.78943900
N           6.95677000     15.70776100     11.01546500
N           9.00082900     15.54924200     10.03994600
P           7.77736500     15.03017200      6.82674400
O           6.92354600     13.86624500      7.05519300
O           9.30252700     14.94505200      7.24180800
H           9.40594400     15.27508100      8.24549300
O           7.84769000     15.35332400      5.27167200
H           8.54141400     16.10173400      5.13144500
O           7.33070200     16.38958800      7.53649400
H           6.30333600     16.45470400      7.61048900
O           4.54486500     16.52038800      8.03840300
H           4.11850900     15.92872700      7.41640100
H           4.49316400     16.06744100      8.89348700
O           4.52674000     15.07158700     10.50613700
H           3.69722200     14.83365500     10.90994500
H           4.90788000     14.22636300     10.15428900
O           5.56126700     12.80419000      9.46251000
H           6.31172100     12.47133900      9.96846000
H           5.95379300     13.08369700      8.61910300
          32
 G =       -0.503298 Gcorr = 0.162674 a.u. Nimag =   0 Frame:    13 Step:    14 Geom:    14
C           8.94014400     13.28759800     11.28798600
C           8.34682400     14.48552200     10.76614100
C           6.98834100     14.75086600     10.97589500
C           6.25531900     13.80884500     11.67353300
C           6.84736600     12.63224500     12.18419300
C           8.19119300     12.35282300     12.00768200
H           6.53563100     15.66870100     10.59354000
H           5.18335200     13.96325000     11.82494100
H           6.21701000     11.92846300     12.72949900
H           8.64339600     11.45102300     12.40574500
H          10.97113900     12.64160400     11.11926600
C          10.46006500     14.50466800     10.15770900
H          11.40781700     14.78258900      9.71828300
N          10.28250200     13.32123200     10.89201900
N           9.32792700     15.20496900     10.07395700
P           7.28408700     16.10050200      7.16934500
O           7.12471400     14.69016400      6.81554200
O           8.69865700     16.60067300      7.67570400
H           8.82760600     16.28474100      8.68086200
O           7.03474500     17.01608300      5.89056400
H           7.25872800     17.98757000      6.14585100
O           6.32604000     16.66702100      8.30893100
H           5.39214900     16.21588400      8.26239700
O           3.81488300     15.35208200      8.30134300
H           3.68966400     15.03032800      7.40878600
H           3.96059700     14.54916500      8.83366300
O           4.35219200     12.93163300      9.64880400
H           3.85073200     12.14615300      9.45415700
H           5.26161200     12.72943200      9.34309600
O           6.84500800     12.35416500      8.63467100
H           6.95169000     13.03162800      7.94734400
H           7.49888100     12.58840300      9.29856600
          32
 G =       -0.502585 Gcorr = 0.161921 a.u. Nimag =   0 Frame:    14 Step:    15 Geom:    15
C           8.33539700     14.31666200     11.78868900
C           8.60662700     13.99730700     10.41602500
C           8.06130700     12.84532900      9.83769200
C           7.26512300     12.04601000     10.63804100
C           7.01474800     12.36006400     11.99194800
C           7.54004000     13.49317700     12.58942300
H           8.25597300     12.60356800      8.79000500
H           6.80352900     11.15027700     10.21411700
H           6.38235000     11.68776500     12.57383700
H           7.34607700     13.73068700     13.62965200
H           9.01578200     16.00679100     12.90688600
C           9.63247400     15.89482300     10.84227700
H          10.21091300     16.80237900     10.74588400
N           8.99567200     15.52536200     12.03835800
N           9.41994600     15.00062000      9.87627200
P           7.57527900     15.48183500      6.87793200
O           7.07527200     14.10927400      6.96699800
O           9.12474900     15.71629100      7.11119700
H           9.36429600     15.35462400      8.08097100
O           7.35840700     16.06056800      5.41004200
H           7.78806500     16.99550600      5.37256300
O           6.95034100     16.56590100      7.86027500
H           5.95258100     16.35781000      8.05096500
O           4.29655500     16.14995100      8.74591900
H           3.99052300     16.88811500      9.26497200
H           4.43366000     15.43005200      9.39255400
O           4.81323100     14.15298600     10.58197100
H           5.67242100     14.25021400     10.99671200
H           4.94053600     13.42758600      9.93743800
O           5.32196600     12.32623900      8.55173600
H           5.95623000     12.86856000      8.05615400
H           4.55994300     12.27368600      7.97251200
          32
 G =       -0.506131 Gcorr = 0.163504 a.u. Nimag =   0 Frame:    15 Step:    16 Geom:    16
C           7.52163900     13.91401700     11.07101100
C           8.70413600     14.72933200     11.11623300
C           9.92116100     14.23079200     10.63871300
C           9.93337700     12.94213600     10.13689700
C           8.76503100     12.14794500     10.09426900
C           7.54622300     12.61615200     10.55120700
H          10.81386500     14.85081900     10.67111600
H          10.86516700     12.51599600      9.76944500
H           8.83091100     11.14294000      9.67781900
H           6.64000700     12.02140200     10.48280300
H           5.50432300     14.53134500     11.52872200
C           7.07137900     15.92184100     11.96558100
H           6.49721400     16.71439600     12.42339900
N           6.50215600     14.68437800     11.63546700
N           8.37649500     15.97130500     11.67308100
P           7.30354100     14.19505800      7.22608800
O           6.28867500     13.76854900      8.18939800
O           8.53858600     13.21625200      6.99222300
H           9.10823300     13.22256700      7.85606200
O           6.68491400     14.28280800      5.76357400
H           7.43523700     14.55385600      5.11100800
O           8.03533000     15.58088600      7.45309000
H           7.50877200     16.17574400      8.13238000
O           6.82984100     17.23187500      9.36158500
H           7.57282800     17.26964700      9.98297900
H           6.11128400     16.79946400      9.83850500
O           4.49847000     15.89232400     10.78404900
H           3.74588000     16.33893600     11.16376000
H           4.16770500     15.52381100      9.93000700
O           3.61341300     14.84974600      8.43577300
H           4.40109500     14.29441000      8.28718300
H           3.61311800     15.44929800      7.68658600
          32
 G =       -0.508012 Gcorr = 0.163086 a.u. Nimag =   0 Frame:    16 Step:    17 Geom:    17
C           8.18675600     13.31206500     10.74192700
C           8.38625700     14.72315200     10.92011500
C           9.63420500     15.29571800     10.66192200
C          10.64476400     14.45724500     10.22202100
C          10.43809900     13.07391500     10.04093000
C           9.21384800     12.47821100     10.29674200
H           9.78774100     16.36303600     10.79987600
H          11.62917400     14.86928500     10.00460100
H          11.27018300     12.46401100      9.69050100
H           9.05217600     11.41449700     10.15435100
H           6.34469400     12.24125600     10.82048500
C           6.27618700     14.31033400     11.37604400
H           5.23091000     14.42221500     11.64331900
N           6.85008500     13.06401300     11.08256600
N           7.17541000     15.29845600     11.32566800
P           6.59089300     13.76131400      7.56623800
O           5.73061600     13.79827600      8.74825900
O           7.62746000     12.54394100      7.52708900
H           8.51606000     12.86479600      7.94027500
O           5.72054700     13.51265800      6.26307300
H           6.35969800     13.43966700      5.45697500
O           7.55236500     14.97727400      7.25981000
H           7.14863600     15.89059300      7.59897200
O           6.77655300     17.46709500      8.05363500
H           7.55115700     18.02009000      8.02110400
H           6.47008900     17.52721400      8.99803900
O           6.01278100     17.62103400     10.61257100
H           6.65436000     17.06227000     11.11663700
H           5.23587000     17.04747100     10.53584600
O           3.90239400     15.76236200     10.03447600
H           4.45272800     15.12506100      9.55945100
H           3.35731600     16.16148800      9.35649900
          32
 G =       -0.506934 Gcorr = 0.164526 a.u. Nimag =   0 Frame:    17 Step:    18 Geom:    18
C           8.12344500     13.50461500     11.06433700
C           8.17723600     14.92394600     10.86493000
C           9.17316000     15.48911300     10.06132400
C          10.10075300     14.62784800      9.49705900
C          10.05986900     13.23563700      9.72601100
C           9.07423800     12.64920900     10.50418300
H           9.18632500     16.56267100      9.87144700
H          10.87205600     15.02731000      8.84003900
H          10.82440600     12.61118400      9.26485300
H           9.04005200     11.57931400     10.67311300
H           6.63237900     12.38124600     12.10629700
C           6.39842100     14.52233000     12.09463800
H           5.48281000     14.63620600     12.66224200
N           6.99104600     13.27314200     11.85630600
N           7.09705300     15.51311100     11.53498100
P           6.95026400     13.92312200      7.34816900
O           5.65132400     13.93333200      8.01393400
O           7.71865800     12.52009900      7.33048600
H           8.26541400     12.44536500      8.20084500
O           6.77052100     14.22057900      5.79479500
H           7.66415600     14.03215700      5.32191700
O           8.08515000     14.88352400      7.88896500
H           7.71831500     15.86293900      8.02540100
O           7.24866200     17.46811100      8.31965400
H           6.65144900     17.77335500      7.64066200
H           6.70379400     17.48231200      9.14928700
O           5.70159900     17.46917700     10.52679400
H           6.41698200     17.23410600     11.16686500
H           5.19081500     16.64532800     10.50118000
O           4.31464600     14.89184700     10.49847400
H           4.82956800     14.54570900      9.75554200
H           3.42544300     14.97208000     10.15528700
          32
 G =       -0.508042 Gcorr = 0.163057 a.u. Nimag =   0 Frame:    18 Step:    19 Geom:    19
C           8.24443900     13.30680100     10.63015300
C           8.43012000     14.70667900     10.89211500
C           9.66497900     15.31138000     10.64462400
C          10.67630500     14.51600000     10.13237000
C          10.48302400     13.14398500      9.86923700
C           9.27206000     12.51665400     10.11241000
H           9.80807500     16.37007100     10.84594100
H          11.65065700     14.95427900      9.92118800
H          11.31494200     12.56863700      9.46417300
H           9.12061600     11.46175100      9.90701700
H           6.41766800     12.20846900     10.67843500
C           6.33576300     14.23707900     11.36533100
H           5.29520200     14.31752200     11.66098000
N           6.91877500     13.01936600     10.98278900
N           7.22122800     15.23874000     11.35811800
P           6.57399100     13.92347600      7.52118000
O           5.74244800     13.87525100      8.72331500
O           7.62710400     12.72767400      7.38513400
H           8.51965800     13.03665400      7.79889500
O           5.67593800     13.73911300      6.22627600
H           6.29637500     13.72674800      5.40228100
O           7.50909300     15.17127100      7.26569400
H           7.10201800     16.05538100      7.67106800
O           6.72253300     17.59542600      8.23278300
H           7.48845500     18.16112300      8.21861100
H           6.43649500     17.59149100      9.18538700
O           6.01335900     17.58196000     10.81198400
H           6.67277200     17.00461000     11.27004000
H           5.24334900     17.00222600     10.71571100
O           3.91512600     15.73179700     10.16070400
H           4.46264000     15.13101400      9.63740300
H           3.35480000     16.16739800      9.51866900
          32
 G =       -0.489889 Gcorr = 0.149262 a.u. Nimag =   0 Frame:    19 Step:    20 Geom:    20
C           8.39557600     13.38010400     10.61830500
C           8.60172500     14.80371700     10.56891400
C           9.87136100     15.31858100     10.24558000
C          10.88253500     14.41400300      9.96974600
C          10.66654900     13.01151100     10.01513700
C           9.43270500     12.47326800     10.34024300
H          10.04051100     16.39252400     10.22164300
H          11.87730900     14.77690700      9.71082600
H          11.50297600     12.34981600      9.78937700
H           9.26428600     11.40089200     10.38039300
H           6.54227100     12.32725800     10.94609800
C           6.47596500     14.48724200     11.07107400
H           5.41765100     14.64386500     11.29131500
N           7.04228800     13.19988900     10.96910400
N           7.38497300     15.46158500     10.85537200
P           6.41428800     14.01928600      7.61739400
O           5.37831700     14.05068400      8.68053400
O           7.46419400     12.74555400      7.70404000
H           8.40870300     12.97111900      7.92731100
O           5.73278300     13.75682000      6.14927200
H           6.34683900     13.60112300      5.38681200
O           7.41805900     15.22329000      7.46321600
H           7.20695000     16.27847600      7.97066100
O           7.30726800     17.43365000      8.61065600
H           7.95491400     17.19228600      9.30628800
H           6.41088800     17.53175900      9.15820000
O           5.44150200     17.74011900     10.34493300
H           5.90535400     17.31645100     11.08610900
H           4.64557100     17.16094100     10.18067300
O           3.86648300     15.64017300     10.20278400
H           4.23803100     15.07764800      9.46771700
H           2.92118400     15.61948000     10.10028100
          32
 G =       -0.487842 Gcorr = 0.152120 a.u. Nimag =   0 Frame:    20 Step:    21 Geom:    21
C           8.18538100     13.20018500     10.84848400
C           8.11523900     14.63551800     10.76383100
C           9.16810600     15.35769400     10.16680400
C          10.23966000     14.63958200      9.66937100
C          10.30165800     13.22261500      9.76290100
C           9.28927200     12.48332700     10.34942600
H           9.11654600     16.44768200     10.09555600
H          11.06515800     15.16459500      9.18763000
H          11.17966600     12.71550200      9.36137400
H           9.33597400     11.40137600     10.42622400
H           6.70951500     11.84655400     11.64246400
C           6.25436800     13.96942400     11.74085000
H           5.28597800     13.95062500     12.22744800
N           6.99431600     12.79406000     11.47667900
N           6.90057600     15.07520300     11.32729800
P           6.54551400     14.26130200      7.52036800
O           5.45603500     14.60645000      8.46451700
O           7.35527800     12.84765700      7.80457300
H           8.29798700     12.92940400      8.11025500
O           5.95407100     13.92711000      6.02589600
H           6.57840400     13.50694700      5.38103200
O           7.71793600     15.29986300      7.33545900
H           7.73631600     16.27596600      8.03194200
O           7.67554300     17.40553200      8.70065100
H           7.39074500     18.04847700      8.04383900
H           6.79434900     17.30470300      9.38214900
O           5.75011200     17.48740100     10.29772300
H           6.15285700     17.10876200     11.11081700
H           5.02239300     16.78056800     10.04908200
O           3.90486500     15.67373700      9.89832000
H           4.45606600     14.87505800     10.06365100
H           3.79012500     15.64714500      8.92339400
