%nproc=24
%mem=50GB
#p M062X/6-311+G(2d,p) nosymm em=GD3 counterpoise=5

Title Card Required

0 1
P          13.06715000      9.93405200     11.01217000       1
O          11.95601800     10.56746900     11.73579800       1
O          14.06462200     10.85555400     10.20384100       1
H          13.53584500     11.62321700      9.70219300       1
O          14.05077800      9.21134100     12.04362500       1
H          14.84823200      8.84377400     11.50298000       1
O          12.69942700      8.73946900     10.04213300       1
H          11.80386800      8.96269300      9.51951000			 1
O          12.71764000     12.87933100      8.87882500       2
H          12.04525800     13.16590500      9.51046900       2
H          12.20992700     12.42041300      8.17834500       2
O           6.99193000     12.91230100      9.49760300       3
H           7.19313600     13.32850300     10.34344800       3
H           7.85363400     12.54190800      9.23185000       3 
O          10.58533400     13.09786500     10.95596100       4
H          11.09302800     12.41998300     11.42137300       4
H          10.12283600     12.56715100     10.25020900       4
O           8.15789000     13.52611700     12.07271900       5
H           8.13764800     14.41870400     12.40106500       5
H           9.06952400     13.40995300     11.71002800       5     


