%mem=50GB
%nprocshared=24
#p opt freq b3lyp/6-311+g(2d,p) em=gd3bj

Title Card Required

0 1
 C                  2.93186700    0.27251300   -0.64902400
 C                  2.21723000    1.40622500   -0.44565700
 C                  1.28447900   -0.19995900    0.74217500
 N                  2.34069800   -0.71681700    0.11657900
 H                  3.80290900    0.08655200   -1.25157000
 H                  2.34736100    2.39819400   -0.83986300
 H                  0.54263300   -0.72800000    1.33069100
 C                  2.61089400   -2.14879200    0.03270600
 H                  2.31223000   -2.62267100    0.96500600
 H                  2.03013600   -2.57124600   -0.78725900
 H                  3.67570400   -2.30573500   -0.12869700
 N                  1.19842700    1.09374900    0.43639700
 C                  0.04720100    1.96174800    0.74413000
 H                  0.45687200    2.94903000    0.95846300
 H                 -0.41759000    1.56882800    1.64613600
 C                 -0.96424200    2.02735100   -0.42162200
 H                 -1.33852000    3.05403500   -0.47526900
 H                 -0.43310500    1.83481800   -1.35586900
 C                 -2.17081400    1.09095800   -0.33045900
 H                 -2.74515600    1.13641900   -1.25559000
 H                 -2.82879100    1.35633100    0.49823800
 S                 -1.76720700   -0.67162300   -0.07382400
 O                 -2.97025800   -1.40757700   -0.43068900
 O                 -0.58644300   -0.91897200   -0.94105000
 O                 -1.39866700   -0.73712300    1.36829700

