%mem=50GB
%nprocshared=24
#p M052X/6-31G*

Title Card Required

0 1
 C                  2.93548900    0.27046900   -0.63864600
 C                  2.22470500    1.40672700   -0.43563500
 C                  1.26705600   -0.20466900    0.73134000
 N                  2.32920700   -0.72110300    0.11403800
 H                  3.81251500    0.08343700   -1.23158200
 H                  2.36494600    2.40091200   -0.81989200
 H                  0.51403400   -0.72869700    1.31060900
 C                  2.60130900   -2.15160300    0.03092800
 H                  2.25822200   -2.63024100    0.94477500
 H                  2.05926500   -2.56911900   -0.81719400
 H                  3.67206300   -2.30927400   -0.08149600
 N                  1.19499500    1.09267200    0.43420300
 C                  0.04851200    1.96444800    0.73923100
 H                  0.46080200    2.95159200    0.94710500
 H                 -0.41509000    1.57828500    1.64419200
 C                 -0.96155700    2.02729400   -0.42393900
 H                 -1.33957800    3.05238000   -0.47529400
 H                 -0.42921000    1.84022100   -1.35819800
 C                 -2.16458400    1.08880200   -0.33509700
 H                 -2.73324000    1.13092300   -1.26347600
 H                 -2.82861100    1.35758300    0.48728800
 S                 -1.76307500   -0.66839800   -0.07261900
 O                 -2.96657700   -1.40425000   -0.42486600
 O                 -0.58522800   -0.92139500   -0.94021500
 O                 -1.39343600   -0.73353300    1.36861700

