          28
 G =       -0.098057 Gcorr = 0.163300 a.u. Nimag =   0 Frame:     1 Step:     1 Geom:     1
C           6.44336600     11.72657200     12.49265700
C           5.25183400     11.67781500     11.78650600
C           5.64662600     13.83223100     12.32839300
N           6.68387600     13.07054500     12.79799300
H           7.09055000     10.93422700     12.82568900
H           4.72796300     10.83957200     11.37445700
H           5.52440000     14.93642300     12.44620900
C           7.70237500     13.56226900     13.71094000
H           8.39676200     14.24865100     13.19864900
H           7.21476900     14.09264100     14.56495600
H           8.27144400     12.72270500     14.15643700
N           4.77626000     12.99475600     11.68217000
C           3.41290900     13.35855500     11.28820800
H           3.17744500     12.86396500     10.32075400
H           3.36686000     14.46538000     11.11255500
C           2.39871100     12.94037500     12.37940400
H           1.49047900     12.54187800     11.88384100
H           2.81046700     12.08912500     12.96884600
C           2.00248000     14.06806700     13.32218200
H           1.26889100     13.70556800     14.06416400
H           1.50056900     14.88733400     12.77998100
S           3.41298200     14.78483900     14.22853400
O           2.87123700     15.36372600     15.44836900
O           4.36494900     13.63820300     14.41021400
O           4.02118500     15.71012300     13.22752000
O           6.16395800     11.72598100     15.15318300
H           5.48874900     12.40312900     14.89728400
H           5.87790800     11.43536600     16.00992100
          28
 G =       -0.099346 Gcorr = 0.159802 a.u. Nimag =   0 Frame:     2 Step:     2 Geom:     2
C           6.93655400     11.94908800     11.42425200
C           5.92023400     12.67020500     10.81365700
C           5.44639000     12.53927600     13.01501800
N           6.61518300     11.87080400     12.78360500
H           7.82063300     11.51082700     11.00566800
H           5.79366600     12.94436900      9.78523900
H           4.89065200     12.66217200     14.05372500
C           7.47713200     11.36311000     13.83590400
H           6.88355900     10.80947100     14.59147300
H           8.25497700     10.69336700     13.43539700
H           7.96952900     12.21691100     14.35871400
N           5.00542800     13.02332600     11.81424300
C           3.86895600     13.93293700     11.63365200
H           3.72364800     14.11884400     10.54858100
H           4.15283900     14.92605000     12.09415000
C           2.57536200     13.38363300     12.26935100
H           1.80722800     13.26049800     11.47931300
H           2.73800500     12.35476200     12.66207500
C           2.02405900     14.28092100     13.37211900
H           1.05329800     13.89366600     13.72939300
H           1.82166900     15.29830300     12.99899100
S           3.14244800     14.40603300     14.80446200
O           2.34709900     14.89623300     15.91572500
O           3.69665500     13.00758000     14.93357500
O           4.23945100     15.28723800     14.29936200
O           6.75750800     14.50898200     13.80565800
H           7.28794600     15.27166700     13.99032200
H           5.82989900     14.80974200     14.03639700
          28
 G =       -0.099067 Gcorr = 0.162475 a.u. Nimag =   0 Frame:     3 Step:     3 Geom:     3
C           6.71669800     11.60421100     11.57173200
C           5.44434300     11.80027300     11.05131300
C           5.85221600     13.45319300     12.53166900
N           6.95170100     12.64547700     12.47479500
H           7.43387300     10.83189500     11.37301400
H           4.89891600     11.22400700     10.33012900
H           5.68167900     14.39216500     13.17958100
C           8.10054400     12.74519200     13.35742100
H           7.94502200     13.55447000     14.10586200
H           8.22151800     11.81189500     13.94470900
H           9.02204100     12.94852200     12.78563200
N           4.92863800     12.95236700     11.65291200
C           3.58840300     13.50728800     11.44403800
H           3.19270700     13.14288500     10.47235200
H           3.68115900     14.62407000     11.35619200
C           2.63923100     13.12676000     12.60230300
H           1.79024100     12.54026700     12.19907400
H           3.14889300     12.43039600     13.30933600
C           2.10947100     14.34061200     13.35495600
H           1.24861800     14.05490500     13.98550500
H           1.73350800     15.11590000     12.66969800
S           3.36483100     15.08546100     14.44931600
O           2.70629300     16.19133700     15.12537100
O           3.81915000     13.94340600     15.29772600
O           4.46993900     15.44247800     13.49486700
O           5.82353700     12.31300100     14.82684700
H           5.08652400     12.98161900     15.01494200
H           5.74031300     11.70596800     15.54872700
          28
 G =       -0.097365 Gcorr = 0.163979 a.u. Nimag =   0 Frame:     4 Step:     4 Geom:     4
C           6.11334700     11.57193700     12.86491800
C           4.86492900     11.48245100     12.27464100
C           5.69928200     13.53343000     11.82321300
N           6.62300200     12.84124800     12.56237500
H           6.64591300     10.86893200     13.48538000
H           4.15072500     10.68357400     12.28668000
H           5.81696900     14.55212700     11.43944500
C           7.77252600     13.46347900     13.19906600
H           8.30306700     12.73977400     13.84827400
H           8.46951000     13.87324000     12.45156400
H           7.41968000     14.28743700     13.87011400
N           4.62242100     12.70436900     11.62326800
C           3.30876500     13.15241100     11.15680800
H           2.95674300     12.44862900     10.36854800
H           3.41599000     14.15796600     10.68327100
C           2.28636400     13.21853200     12.31408500
H           1.27613800     13.03169500     11.89473300
H           2.46329100     12.38241700     13.03034500
C           2.28224300     14.54451900     13.05974700
H           1.40022100     14.60426000     13.72390200
H           2.19632200     15.40022400     12.37148700
S           3.75959700     14.80651200     14.10013500
O           3.40228700     15.85780900     15.04276700
O           4.04985500     13.46509400     14.68901200
O           4.82140800     15.15425500     13.10252400
O           6.39720200     12.39120600     15.37792700
H           6.33038000     12.34743300     16.32215700
H           5.51182600     12.77505800     15.10362500
          28
 G =       -0.098099 Gcorr = 0.163261 a.u. Nimag =   0 Frame:     5 Step:     5 Geom:     5
C           6.28524400     11.37659600     12.55828000
C           5.05399400     11.42225500     11.92319300
C           5.77244700     13.54387200     12.19181800
N           6.72526600     12.69748800     12.69371300
H           6.83925200     10.54070900     12.94804500
H           4.39507200     10.62761100     11.63803700
H           5.80722300     14.66090500     12.19121700
C           7.86268800     13.13486500     13.48580300
H           8.34528700     12.27551200     13.99165900
H           8.60412700     13.65902200     12.86017800
H           7.51263500     13.81564300     14.29960900
N           4.75584300     12.77428800     11.69151600
C           3.43369100     13.28473700     11.32064500
H           3.07490000     12.72906700     10.42698900
H           3.52908100     14.36185900     11.02314000
C           2.43890600     13.13405300     12.49603900
H           1.45583500     12.82199600     12.08934300
H           2.76289400     12.29840300     13.15814800
C           2.26151300     14.39986200     13.32300800
H           1.52784600     14.22873600     14.13081200
H           1.85111600     15.22343400     12.71461500
S           3.81003300     14.98951900     14.08434800
O           3.42864300     15.76466100     15.25503400
O           4.59602300     13.73881500     14.34985900
O           4.48397200     15.70839300     12.96275100
O           6.20302700     11.71159000     15.21494100
H           5.93331700     11.54763200     16.10971400
H           5.60012700     12.43849500     14.91756200
          28
 G =       -0.095464 Gcorr = 0.162490 a.u. Nimag =   0 Frame:     6 Step:     6 Geom:     6
C           5.68518900     11.02707400     12.05073500
C           4.99925100     11.91772200     11.24229700
C           5.83129000     13.07691200     12.99077800
N           6.21652700     11.76420600     13.11677700
H           5.83022000      9.96972100     11.94930200
H           4.46319500     11.75134900     10.32914800
H           6.13231600     13.90222600     13.66187000
C           6.73456300     11.20792700     14.35545500
H           5.94211300     11.27327100     15.14553200
H           7.02036100     10.15113600     14.23281600
H           7.61438700     11.77864600     14.70520600
N           5.11394000     13.18882300     11.82682200
C           4.29182100     14.34366300     11.46287800
H           4.26679000     14.42917100     10.35465300
H           4.78365600     15.28369300     11.83483400
C           2.86435900     14.20038500     12.03739200
H           2.14607100     14.59709500     11.29042000
H           2.60767900     13.12200500     12.14590400
C           2.65224000     14.92025300     13.36152400
H           1.57872600     14.91456800     13.62676500
H           2.93158000     15.98575800     13.28225500
S           3.57183200     14.20589400     14.76718400
O           2.68469700     14.27148800     15.91755300
O           3.99610900     12.84306700     14.31932200
O           4.80507400     15.06344600     14.81871300
O           6.27272800     16.25403100     12.97658800
H           5.72485300     15.88160800     13.72504200
H           6.61843600     17.06487700     13.32225900
          28
 G =       -0.095631 Gcorr = 0.163250 a.u. Nimag =   0 Frame:     7 Step:     7 Geom:     7
C           6.09136500     11.30143000     11.85918700
C           5.07822800     11.84534900     11.08207700
C           5.79814900     13.43655000     12.50769800
N           6.53313400     12.30672800     12.72516500
H           6.50156800     10.31046800     11.86361700
H           4.48428200     11.39817600     10.31048800
H           5.90563900     14.40439800     13.03696900
C           7.40619400     12.13132600     13.87225300
H           6.78309800     12.09109000     14.80324800
H           8.00229000     11.21175600     13.79405800
H           8.08396700     13.00464500     13.99532000
N           4.92134800     13.17905300     11.48095400
C           3.77915600     14.03565300     11.15643400
H           3.61147500     14.00477500     10.05707000
H           4.03390200     15.09232500     11.42200700
C           2.50823200     13.58541400     11.91364300
H           1.63088700     13.75029300     11.25539700
H           2.54230000     12.48475300     12.08624600
C           2.28870200     14.31154100     13.23307300
H           1.28865000     14.06898700     13.63769200
H           2.29522300     15.40629500     13.09835200
S           3.51792700     13.89705800     14.51787600
O           2.80380100     13.89626200     15.78539900
O           4.13830900     12.62134000     14.07414200
O           4.55870300     14.97875700     14.34496500
O           7.11599300     14.69466700     15.11892200
H           6.15022400     14.82121600     14.89682500
H           7.25725700     15.27971200     15.85094100
          28
 G =       -0.095496 Gcorr = 0.163681 a.u. Nimag =   0 Frame:     8 Step:     8 Geom:     8
C           5.84285900     11.13635800     12.14048900
C           4.87997500     11.68491100     11.30504700
C           5.81526300     13.36007200     12.48918300
N           6.41974100     12.19135900     12.85443500
H           6.13613700     10.11390100     12.27757000
H           4.21872100     11.20986500     10.60850300
H           6.04962900     14.37194800     12.87680400
C           7.30707000     12.07577700     13.99844800
H           6.74657600     12.36048700     14.92759900
H           7.69095700     11.05222600     14.11393600
H           8.15740000     12.78405500     13.91565300
N           4.88925100     13.06992800     11.51585100
C           3.84777800     14.00358300     11.08275300
H           3.65378100     13.84335300      9.99914000
H           4.23003000     15.04909500     11.19871900
C           2.55010000     13.81456300     11.90226000
H           1.68320900     13.97990400     11.23052000
H           2.46520000     12.75413700     12.23479100
C           2.43981200     14.74476700     13.10181600
H           1.43175800     14.66882700     13.54966200
H           2.55296200     15.80139200     12.80593900
S           3.65608900     14.39734800     14.41787200
O           2.98610700     14.66954600     15.68019700
O           4.12152300     13.00732100     14.16876800
O           4.80238300     15.31565600     14.06434700
O           7.32861000     14.87132800     14.87725600
H           6.38293000     15.07272400     14.63095200
H           7.53415000     15.52558100     15.53151100
          28
 G =       -0.098097 Gcorr = 0.163263 a.u. Nimag =   0 Frame:     9 Step:     9 Geom:     9
C           6.26109600     11.49547500     12.58226600
C           5.04882900     11.53756900     11.91143200
C           5.75368000     13.66116000     12.19969600
N           6.69358300     12.81763000     12.72955000
H           6.80573700     10.66135600     12.98861600
H           4.40055900     10.74103200     11.60774500
H           5.78488100     14.77846900     12.20009400
C           7.80713400     13.25810400     13.55318100
H           8.27775000     12.40002800     14.07238500
H           8.56414400     13.78458500     12.94868700
H           7.43256200     13.93752400     14.35708400
N           4.75410800     12.88868700     11.67024700
C           3.44208200     13.39559300     11.26044200
H           3.11133000     12.83888900     10.35663600
H           3.54339800     14.47289900     10.96559500
C           2.41325900     13.24260000     12.40580600
H           1.44328100     12.92865300     11.97015700
H           2.71917700     12.40744200     13.07704500
C           2.20888200     14.50783200     13.22746400
H           1.45153700     14.33506300     14.01277200
H           1.81546200     15.33087900     12.60728200
S           3.73283700     15.09955800     14.03520400
O           3.31538600     15.87277500     15.19479500
O           4.51256500     13.84984800     14.32239000
O           4.43858700     15.82102800     12.93487000
O           6.10440800     11.83262200     15.23646900
H           5.80757000     11.66740800     16.12244300
H           5.50618400     12.55531000     14.91965900
          28
 G =       -0.097327 Gcorr = 0.163641 a.u. Nimag =   0 Frame:    10 Step:    11 Geom:    11
C           6.21118900     11.57325800     12.62676300
C           4.96567100     11.56583500     12.02407600
C           5.76295400     13.67890900     11.94189600
N           6.69692800     12.88543100     12.55534800
H           6.75655100     10.78203300     13.11602300
H           4.26687100     10.76433000     11.89141300
H           5.86360100     14.75018400     11.73884100
C           7.83285400     13.40706000     13.29795500
H           8.59812500     13.81757200     12.62171500
H           7.48198900     14.20411300     13.99986600
H           8.27950000     12.61634200     13.93683200
N           4.70144200     12.87847700     11.59506100
C           3.37757700     13.37862300     11.21909900
H           3.02941300     12.81407100     10.32450100
H           3.46608400     14.45183100     10.92342600
C           2.36454500     13.22997500     12.37709900
H           1.35407300     13.09712100     11.93822800
H           2.56230500     12.28858200     12.94123200
C           2.34338900     14.41106500     13.33550600
H           1.46207100     14.34519200     14.00002100
H           2.24324600     15.36917700     12.80126900
S           3.81848800     14.51776900     14.40635000
O           3.44497500     15.39003400     15.51129100
O           4.13398000     13.10193900     14.76241100
O           4.87287000     15.04525200     13.48234700
O           6.50016400     11.95939400     15.24329400
H           6.40978700     11.72537200     16.15729000
H           5.61936300     12.39107500     15.03086700
          28
 G =       -0.099070 Gcorr = 0.162472 a.u. Nimag =   0 Frame:    11 Step:    13 Geom:    13
C           6.66230800     11.38735900     11.68524500
C           5.36695100     11.54004900     11.20890000
C           5.83745100     13.31188400     12.52387300
N           6.93542800     12.50107700     12.48527500
H           7.37179500     10.60019900     11.52001000
H           4.79072300     10.90539700     10.56480500
H           5.69394400     14.30254700     13.09724900
C           8.12306900     12.67387500     13.30286700
H           7.99952200     13.54363100     13.98661500
H           8.27342000     11.79341900     13.96073400
H           9.01692400     12.82724200     12.67442100
N           4.87606700     12.73949300     11.73383200
C           3.52627100     13.27644800     11.54016100
H           3.08779800     12.83195400     10.62162000
H           3.61196300     14.38175500     11.35441800
C           2.63172400     12.99601100     12.76834500
H           1.76672700     12.37883400     12.45490700
H           3.17475700     12.36095000     13.50751300
C           2.13364100     14.26955900     13.43960500
H           1.30354100     14.03886900     14.13100200
H           1.72428500     14.98461300     12.70946500
S           3.43577300     15.10282700     14.40833800
O           2.80588500     16.26258700     15.01814900
O           3.93175200     14.03603400     15.32830500
O           4.49496000     15.37677600     13.37736700
O           5.91716800     12.36907600     14.90644200
H           5.86849400     11.82555100     15.68021600
H           5.18766400     13.05200600     15.07034100
          28
 G =       -0.095538 Gcorr = 0.162875 a.u. Nimag =   0 Frame:    12 Step:    14 Geom:    14
C           5.78273900     11.45524900     12.21652000
C           4.66074400     11.94829300     11.56945600
C           5.85024800     13.70676000     12.33714000
N           6.51308500     12.55931900     12.67251900
H           6.07722800     10.44289700     12.41322700
H           3.83532200     11.42437800     11.12711800
H           6.15794700     14.72570600     12.58939600
C           7.66997900     12.48818000     13.54575800
H           8.33778600     11.66135200     13.25959900
H           8.24385800     13.44051700     13.53812500
H           7.33728900     12.34722800     14.60269900
N           4.72717100     13.34622700     11.62858300
C           3.64041600     14.26235300     11.27288900
H           3.51127200     14.23746400     10.16670100
H           3.93990600     15.30270000     11.55480300
C           2.31225000     13.89764900     11.97356500
H           1.47766200     14.29300800     11.35825900
H           2.17381900     12.79299600     11.98249200
C           2.19468200     14.44148300     13.38977300
H           1.19960600     14.21315300     13.80989700
H           2.28833100     15.53921300     13.41434100
S           3.45157200     13.74410500     14.51534600
O           2.96049000     13.95095800     15.87135800
O           3.65087100     12.35517000     14.05723200
O           4.66575300     14.57802800     14.15324800
O           7.17978700     14.82831800     14.92254400
H           7.19537500     15.40483100     15.67376300
H           6.20481700     14.73248100     14.71366700
          28
 G =       -0.095540 Gcorr = 0.162873 a.u. Nimag =   0 Frame:    13 Step:    15 Geom:    15
C           5.75838000     11.39281600     12.20161100
C           4.65316300     11.91519300     11.54874400
C           5.91468900     13.64203900     12.27194100
N           6.53381400     12.47711300     12.62977800
H           6.01415200     10.37425000     12.41935700
H           3.80545200     11.41459700     11.12177100
H           6.26340400     14.65341900     12.50003000
C           7.69149600     12.37969800     13.49940800
H           7.35895400     12.27481700     14.56058200
H           8.32509700     11.52144400     13.22852200
H           8.30201200     13.30851200     13.46863600
N           4.77457400     13.31037700     11.57655400
C           3.72270400     14.26050300     11.20561200
H           3.58665700     14.21646100     10.10083200
H           4.06430400     15.29423400     11.46304600
C           2.38516100     13.96369300     11.92030700
H           1.56326800     14.37740300     11.30001600
H           2.20384100     12.86574700     11.95483100
C           2.29649900     14.54335900     13.32437000
H           1.29561500     14.36343200     13.75414100
H           2.43283200     15.63685400     13.32369800
S           3.53138200     13.82286700     14.45968800
O           3.05584600     14.07882600     15.81284900
O           3.67425800     12.41745000     14.03194500
O           4.77514900     14.60068900     14.07360600
O           7.30121400     14.76735400     14.82450800
H           7.34424300     15.36159500     15.56065900
H           6.32184200     14.70527900     14.62297000
          28
 G =       -0.091699 Gcorr = 0.166764 a.u. Nimag =   0 Frame:    14 Step:    16 Geom:    16
C           5.65358300     11.35238700     12.47242800
C           4.49954700     11.83772600     11.87479100
C           5.89925200     13.57737100     12.20279700
N           6.50945600     12.44373900     12.65861100
H           5.88910500     10.36202500     12.80910500
H           3.58481400     11.32731100     11.63323100
H           6.31405100     14.58482800     12.23628900
C           7.76772100     12.39923800     13.37996800
H           8.31410100     11.46553200     13.17244300
H           8.41460600     13.26274200     13.12277200
H           7.57675000     12.47668000     14.47836800
N           4.67764800     13.21220500     11.68274200
C           3.64529100     14.16148100     11.25617300
H           3.49729600     14.04184700     10.15808900
H           4.01824300     15.20082000     11.43738100
C           2.30425700     13.96333900     11.99673800
H           1.49791100     14.39296800     11.36635300
H           2.06474100     12.87987500     12.08004800
C           2.26213600     14.60741500     13.37454300
H           1.26446500     14.48405700     13.82995400
H           2.44055100     15.69324000     13.32383700
S           3.49342000     13.88608000     14.51582500
O           3.06712800     14.23228900     15.86591200
O           3.54027500     12.45325200     14.15520900
O           4.75610300     14.57941200     14.05681700
O           7.33160200     14.91707200     14.52523400
H           7.40244800     15.58268800     15.19546600
H           6.34349900     14.78239800     14.42889500
          28
 G =       -0.095487 Gcorr = 0.163690 a.u. Nimag =   0 Frame:    15 Step:    17 Geom:    17
C           5.73576300     11.18936100     11.92477300
C           4.68265800     11.74231700     11.20975500
C           5.65698100     13.38722700     12.40474300
N           6.33443200     12.22657300     12.64677500
H           6.07770400     10.17412000     11.97550100
H           3.98006300     11.27909600     10.54650200
H           5.88718500     14.38504800     12.82952100
C           7.32376200     12.08514500     13.70068000
H           7.75422700     11.07389100     13.72168100
H           8.13638100     12.83223300     13.58648500
H           6.83797900     12.29367800     14.69015500
N           4.65933600     13.11266900     11.50007700
C           3.54958100     14.02418800     11.21457200
H           3.26631800     13.91647400     10.14422700
H           3.90152900     15.07684300     11.35865900
C           2.33767700     13.73525800     12.13062000
H           1.40901800     13.90113000     11.54742500
H           2.32197200     12.65529500     12.40582300
C           2.30002300     14.59160200     13.38825200
H           1.33929100     14.44837400     13.91644100
H           2.34727100     15.66688700     13.14685000
S           3.64048200     14.22271100     14.57115900
O           3.07569600     14.39582100     15.90067100
O           4.13298800     12.86954100     14.20093400
O           4.71601100     15.20669800     14.17462000
O           7.31939500     14.82606200     14.73763200
H           7.55768800     15.45154600     15.40877100
H           6.34859200     15.00023000     14.58671000
          28
 G =       -0.095464 Gcorr = 0.163713 a.u. Nimag =   0 Frame:    16 Step:    18 Geom:    18
C           5.71215200     11.14616900     11.91526400
C           4.64694400     11.70048300     11.21955100
C           5.64313500     13.34355200     12.39900200
N           6.32408300     12.18221200     12.62778600
H           6.05436900     10.13067700     11.95892100
H           3.93263600     11.23855000     10.56803000
H           5.88163600     14.34072800     12.82042200
C           7.33166000     12.03918500     13.66405900
H           8.14474000     12.78316800     13.53389900
H           6.86446300     12.25136000     14.66171600
H           7.75883100     11.02644400     13.67929200
N           4.62966200     13.07065300     11.51158100
C           3.51494900     13.98266800     11.24768200
H           3.21101900     13.87503100     10.18296500
H           3.87006800     15.03514600     11.38484900
C           2.32081500     13.69431300     12.18687200
H           1.38117800     13.86080600     11.62167500
H           2.30987100     12.61431500     12.46218900
C           2.30777300     14.55057800     13.44505400
H           1.35646100     14.40921400     13.99056500
H           2.35264100     15.62581100     13.20292100
S           3.66858300     14.17914800     14.60365000
O           3.12720800     14.35033100     15.94311500
O           4.15352400     12.82617400     14.22250600
O           4.73772700     15.16290800     14.19011600
O           7.35139700     14.77675300     14.70016000
H           7.60434000     15.40077100     15.36722600
H           6.37813600     14.95286800     14.56895000
          28
 G =       -0.095468 Gcorr = 0.163709 a.u. Nimag =   0 Frame:    17 Step:    19 Geom:    19
C           5.71202600     11.20289500     11.84121500
C           4.66732700     11.80911900     11.15774000
C           5.67110700     13.37450100     12.43255200
N           6.32910500     12.19182400     12.61374000
H           6.03676700     10.18077400     11.83968000
H           3.95609900     11.39212000     10.47334000
H           5.91881100     14.34550300     12.90666200
C           7.31834300     11.98092800     13.65604000
H           6.83862900     12.14829800     14.65628800
H           7.73090600     10.96246400     13.62554900
H           8.14361400     12.71850200     13.57647100
N           4.66757400     13.16315700     11.51737800
C           3.57279900     14.10653200     11.28175800
H           3.28571000     14.05808900     10.20805200
H           3.94284300     15.14435800     11.47824900
C           2.35787900     13.79187600     12.18518400
H           1.43117500     14.00241900     11.61338900
H           2.32460000     12.69980000     12.40556300
C           2.33643300     14.58402600     13.48458000
H           1.37461300     14.42950000     14.00747800
H           2.40025200     15.66935400     13.29764700
S           3.67312400     14.13503900     14.64371000
O           3.11379700     14.25027300     15.98178500
O           4.14294600     12.79430500     14.20485000
O           4.76372500     15.12013900     14.29406000
O           7.36219500     14.66616400     14.82843700
H           7.61333900     15.25351800     15.52880800
H           6.39426400     14.86454100     14.68980700
          28
 G =       -0.095354 Gcorr = 0.163289 a.u. Nimag =   0 Frame:    18 Step:    20 Geom:    20
C           5.52817000     11.28275400     12.35489100
C           4.41963200     11.81449400     11.71533600
C           5.76315500     13.52618600     12.31659100
N           6.35446500     12.35690100     12.70662600
H           5.75524000     10.26646600     12.61139900
H           3.54086700     11.32558200     11.34066100
H           6.15341200     14.53351700     12.48848400
C           7.54214300     12.25887400     13.53516600
H           7.25740300     12.32981400     14.61401200
H           8.07183600     11.30875300     13.36435100
H           8.23875300     13.10121700     13.34578900
N           4.58971700     13.20425100     11.67418600
C           3.56014800     14.17390100     11.29078900
H           3.39446700     14.09026900     10.19237600
H           3.94218300     15.20492700     11.49763600
C           2.23207900     13.95212000     12.04901900
H           1.40921200     14.37041300     11.43307000
H           2.01403000     12.86350400     12.13124300
C           2.19943700     14.58812900     13.43095400
H           1.20607100     14.45596600     13.89396500
H           2.36863800     15.67599800     13.38355000
S           3.44400600     13.87349600     14.55933600
O           3.02286000     14.20670900     15.91377700
O           3.52194900     12.44616500     14.19140700
O           4.70078000     14.58715700     14.09952700
O           7.24816800     14.78133500     14.78278600
H           7.30430800     15.39679300     15.50070300
H           6.26687200     14.71432300     14.60238800
          28
 G =       -0.097375 Gcorr = 0.163990 a.u. Nimag =   0 Frame:    19 Step:    21 Geom:    21
C           6.04326000     11.63475900     12.53341200
C           4.75032300     11.62736200     12.04032700
C           5.56691300     13.72203700     11.81150400
N           6.54008800     12.93437600     12.36985000
H           6.61691400     10.85246500     13.00441500
H           4.03127800     10.83386700     11.99861000
H           5.66438100     14.78397600     11.56338900
C           7.74323900     13.46297500     12.99210100
H           7.45417700     14.18998100     13.79307200
H           8.31296600     12.65742400     13.49556300
H           8.38558800     13.96753000     12.25380400
N           4.46878800     12.92798400     11.58696000
C           3.12625100     13.43507400     11.29627800
H           2.70331400     12.84595300     10.45107100
H           3.20535700     14.49626100     10.95755400
C           2.20311700     13.34148600     12.53244100
H           1.16044500     13.20852700     12.17682800
H           2.43207600     12.41754000     13.11337600
C           2.27019800     14.55559600     13.44649900
H           1.44397500     14.52470300     14.18066900
H           2.13823800     15.49578400     12.88804600
S           3.82716600     14.67796600     14.39235800
O           3.55599700     15.59994700     15.48687800
O           4.14729100     13.27154400     14.77960700
O           4.81262400     15.14939600     13.36756400
O           6.52373700     12.09782000     15.10192800
H           5.63562500     12.53819200     14.94737900
H           6.50667600     11.89949100     16.02853500
