          28
 Energy =    -1083.65978140 a.u.  Frame:     1 Step:     1 Geom:     1
C           6.28524400     11.37659600     12.55828000
C           5.05399400     11.42225500     11.92319300
C           5.77244700     13.54387200     12.19181800
N           6.72526600     12.69748800     12.69371300
H           6.83925200     10.54070900     12.94804500
H           4.39507200     10.62761100     11.63803700
H           5.80722300     14.66090500     12.19121700
C           7.86268800     13.13486500     13.48580300
H           8.34528700     12.27551200     13.99165900
H           8.60412700     13.65902200     12.86017800
H           7.51263500     13.81564300     14.29960900
N           4.75584300     12.77428800     11.69151600
C           3.43369100     13.28473700     11.32064500
H           3.07490000     12.72906700     10.42698900
H           3.52908100     14.36185900     11.02314000
C           2.43890600     13.13405300     12.49603900
H           1.45583500     12.82199600     12.08934300
H           2.76289400     12.29840300     13.15814800
C           2.26151300     14.39986200     13.32300800
H           1.52784600     14.22873600     14.13081200
H           1.85111600     15.22343400     12.71461500
S           3.81003300     14.98951900     14.08434800
O           3.42864300     15.76466100     15.25503400
O           4.59602300     13.73881500     14.34985900
O           4.48397200     15.70839300     12.96275100
O           6.20302700     11.71159000     15.21494100
H           5.93331700     11.54763200     16.10971400
H           5.60012700     12.43849500     14.91756200
          28
 Energy =    -1083.65793590 a.u.  Frame:     2 Step:     2 Geom:     2
C           6.04326000     11.63475900     12.53341200
C           4.75032300     11.62736200     12.04032700
C           5.56691300     13.72203700     11.81150400
N           6.54008800     12.93437600     12.36985000
H           6.61691400     10.85246500     13.00441500
H           4.03127800     10.83386700     11.99861000
H           5.66438100     14.78397600     11.56338900
C           7.74323900     13.46297500     12.99210100
H           7.45417700     14.18998100     13.79307200
H           8.31296600     12.65742400     13.49556300
H           8.38558800     13.96753000     12.25380400
N           4.46878800     12.92798400     11.58696000
C           3.12625100     13.43507400     11.29627800
H           2.70331400     12.84595300     10.45107100
H           3.20535700     14.49626100     10.95755400
C           2.20311700     13.34148600     12.53244100
H           1.16044500     13.20852700     12.17682800
H           2.43207600     12.41754000     13.11337600
C           2.27019800     14.55559600     13.44649900
H           1.44397500     14.52470300     14.18066900
H           2.13823800     15.49578400     12.88804600
S           3.82716600     14.67796600     14.39235800
O           3.55599700     15.59994700     15.48687800
O           4.14729100     13.27154400     14.77960700
O           4.81262400     15.14939600     13.36756400
O           6.52373700     12.09782000     15.10192800
H           5.63562500     12.53819200     14.94737900
H           6.50667600     11.89949100     16.02853500
          28
 Energy =    -1083.65744830 a.u.  Frame:     3 Step:     3 Geom:     3
C           6.21118900     11.57325800     12.62676300
C           4.96567100     11.56583500     12.02407600
C           5.76295400     13.67890900     11.94189600
N           6.69692800     12.88543100     12.55534800
H           6.75655100     10.78203300     13.11602300
H           4.26687100     10.76433000     11.89141300
H           5.86360100     14.75018400     11.73884100
C           7.83285400     13.40706000     13.29795500
H           8.59812500     13.81757200     12.62171500
H           7.48198900     14.20411300     13.99986600
H           8.27950000     12.61634200     13.93683200
N           4.70144200     12.87847700     11.59506100
C           3.37757700     13.37862300     11.21909900
H           3.02941300     12.81407100     10.32450100
H           3.46608400     14.45183100     10.92342600
C           2.36454500     13.22997500     12.37709900
H           1.35407300     13.09712100     11.93822800
H           2.56230500     12.28858200     12.94123200
C           2.34338900     14.41106500     13.33550600
H           1.46207100     14.34519200     14.00002100
H           2.24324600     15.36917700     12.80126900
S           3.81848800     14.51776900     14.40635000
O           3.44497500     15.39003400     15.51129100
O           4.13398000     13.10193900     14.76241100
O           4.87287000     15.04525200     13.48234700
O           6.50016400     11.95939400     15.24329400
H           6.40978700     11.72537200     16.15729000
H           5.61936300     12.39107500     15.03086700
          28
 Energy =    -1083.65690640 a.u.  Frame:     4 Step:     4 Geom:     4
C           6.09136500     11.30143000     11.85918700
C           5.07822800     11.84534900     11.08207700
C           5.79814900     13.43655000     12.50769800
N           6.53313400     12.30672800     12.72516500
H           6.50156800     10.31046800     11.86361700
H           4.48428200     11.39817600     10.31048800
H           5.90563900     14.40439800     13.03696900
C           7.40619400     12.13132600     13.87225300
H           6.78309800     12.09109000     14.80324800
H           8.00229000     11.21175600     13.79405800
H           8.08396700     13.00464500     13.99532000
N           4.92134800     13.17905300     11.48095400
C           3.77915600     14.03565300     11.15643400
H           3.61147500     14.00477500     10.05707000
H           4.03390200     15.09232500     11.42200700
C           2.50823200     13.58541400     11.91364300
H           1.63088700     13.75029300     11.25539700
H           2.54230000     12.48475300     12.08624600
C           2.28870200     14.31154100     13.23307300
H           1.28865000     14.06898700     13.63769200
H           2.29522300     15.40629500     13.09835200
S           3.51792700     13.89705800     14.51787600
O           2.80380100     13.89626200     15.78539900
O           4.13830900     12.62134000     14.07414200
O           4.55870300     14.97875700     14.34496500
O           7.11599300     14.69466700     15.11892200
H           6.15022400     14.82121600     14.89682500
H           7.25725700     15.27971200     15.85094100
          28
 Energy =    -1083.65682420 a.u.  Frame:     5 Step:     5 Geom:     5
C           5.75838000     11.39281600     12.20161100
C           4.65316300     11.91519300     11.54874400
C           5.91468900     13.64203900     12.27194100
N           6.53381400     12.47711300     12.62977800
H           6.01415200     10.37425000     12.41935700
H           3.80545200     11.41459700     11.12177100
H           6.26340400     14.65341900     12.50003000
C           7.69149600     12.37969800     13.49940800
H           7.35895400     12.27481700     14.56058200
H           8.32509700     11.52144400     13.22852200
H           8.30201200     13.30851200     13.46863600
N           4.77457400     13.31037700     11.57655400
C           3.72270400     14.26050300     11.20561200
H           3.58665700     14.21646100     10.10083200
H           4.06430400     15.29423400     11.46304600
C           2.38516100     13.96369300     11.92030700
H           1.56326800     14.37740300     11.30001600
H           2.20384100     12.86574700     11.95483100
C           2.29649900     14.54335900     13.32437000
H           1.29561500     14.36343200     13.75414100
H           2.43283200     15.63685400     13.32369800
S           3.53138200     13.82286700     14.45968800
O           3.05584600     14.07882600     15.81284900
O           3.67425800     12.41745000     14.03194500
O           4.77514900     14.60068900     14.07360600
O           7.30121400     14.76735400     14.82450800
H           7.34424300     15.36159500     15.56065900
H           6.32184200     14.70527900     14.62297000
          28
 Energy =    -1083.65566940 a.u.  Frame:     6 Step:     6 Geom:     6
C           5.65358300     11.35238700     12.47242800
C           4.49954700     11.83772600     11.87479100
C           5.89925200     13.57737100     12.20279700
N           6.50945600     12.44373900     12.65861100
H           5.88910500     10.36202500     12.80910500
H           3.58481400     11.32731100     11.63323100
H           6.31405100     14.58482800     12.23628900
C           7.76772100     12.39923800     13.37996800
H           8.31410100     11.46553200     13.17244300
H           8.41460600     13.26274200     13.12277200
H           7.57675000     12.47668000     14.47836800
N           4.67764800     13.21220500     11.68274200
C           3.64529100     14.16148100     11.25617300
H           3.49729600     14.04184700     10.15808900
H           4.01824300     15.20082000     11.43738100
C           2.30425700     13.96333900     11.99673800
H           1.49791100     14.39296800     11.36635300
H           2.06474100     12.87987500     12.08004800
C           2.26213600     14.60741500     13.37454300
H           1.26446500     14.48405700     13.82995400
H           2.44055100     15.69324000     13.32383700
S           3.49342000     13.88608000     14.51582500
O           3.06712800     14.23228900     15.86591200
O           3.54027500     12.45325200     14.15520900
O           4.75610300     14.57941200     14.05681700
O           7.33160200     14.91707200     14.52523400
H           7.40244800     15.58268800     15.19546600
H           6.34349900     14.78239800     14.42889500
          28
 Energy =    -1083.65566400 a.u.  Frame:     7 Step:     7 Geom:     7
C           5.68518900     11.02707400     12.05073500
C           4.99925100     11.91772200     11.24229700
C           5.83129000     13.07691200     12.99077800
N           6.21652700     11.76420600     13.11677700
H           5.83022000      9.96972100     11.94930200
H           4.46319500     11.75134900     10.32914800
H           6.13231600     13.90222600     13.66187000
C           6.73456300     11.20792700     14.35545500
H           5.94211300     11.27327100     15.14553200
H           7.02036100     10.15113600     14.23281600
H           7.61438700     11.77864600     14.70520600
N           5.11394000     13.18882300     11.82682200
C           4.29182100     14.34366300     11.46287800
H           4.26679000     14.42917100     10.35465300
H           4.78365600     15.28369300     11.83483400
C           2.86435900     14.20038500     12.03739200
H           2.14607100     14.59709500     11.29042000
H           2.60767900     13.12200500     12.14590400
C           2.65224000     14.92025300     13.36152400
H           1.57872600     14.91456800     13.62676500
H           2.93158000     15.98575800     13.28225500
S           3.57183200     14.20589400     14.76718400
O           2.68469700     14.27148800     15.91755300
O           3.99610900     12.84306700     14.31932200
O           4.80507400     15.06344600     14.81871300
O           6.27272800     16.25403100     12.97658800
H           5.72485300     15.88160800     13.72504200
H           6.61843600     17.06487700     13.32225900
          28
 Energy =    -1083.65561590 a.u.  Frame:     8 Step:     8 Geom:     8
C           6.66230800     11.38735900     11.68524500
C           5.36695100     11.54004900     11.20890000
C           5.83745100     13.31188400     12.52387300
N           6.93542800     12.50107700     12.48527500
H           7.37179500     10.60019900     11.52001000
H           4.79072300     10.90539700     10.56480500
H           5.69394400     14.30254700     13.09724900
C           8.12306900     12.67387500     13.30286700
H           7.99952200     13.54363100     13.98661500
H           8.27342000     11.79341900     13.96073400
H           9.01692400     12.82724200     12.67442100
N           4.87606700     12.73949300     11.73383200
C           3.52627100     13.27644800     11.54016100
H           3.08779800     12.83195400     10.62162000
H           3.61196300     14.38175500     11.35441800
C           2.63172400     12.99601100     12.76834500
H           1.76672700     12.37883400     12.45490700
H           3.17475700     12.36095000     13.50751300
C           2.13364100     14.26955900     13.43960500
H           1.30354100     14.03886900     14.13100200
H           1.72428500     14.98461300     12.70946500
S           3.43577300     15.10282700     14.40833800
O           2.80588500     16.26258700     15.01814900
O           3.93175200     14.03603400     15.32830500
O           4.49496000     15.37677600     13.37736700
O           5.91716800     12.36907600     14.90644200
H           5.86849400     11.82555100     15.68021600
H           5.18766400     13.05200600     15.07034100
          28
 Energy =    -1083.65451780 a.u.  Frame:     9 Step:     9 Geom:     9
C           6.93655400     11.94908800     11.42425200
C           5.92023400     12.67020500     10.81365700
C           5.44639000     12.53927600     13.01501800
N           6.61518300     11.87080400     12.78360500
H           7.82063300     11.51082700     11.00566800
H           5.79366600     12.94436900      9.78523900
H           4.89065200     12.66217200     14.05372500
C           7.47713200     11.36311000     13.83590400
H           6.88355900     10.80947100     14.59147300
H           8.25497700     10.69336700     13.43539700
H           7.96952900     12.21691100     14.35871400
N           5.00542800     13.02332600     11.81424300
C           3.86895600     13.93293700     11.63365200
H           3.72364800     14.11884400     10.54858100
H           4.15283900     14.92605000     12.09415000
C           2.57536200     13.38363300     12.26935100
H           1.80722800     13.26049800     11.47931300
H           2.73800500     12.35476200     12.66207500
C           2.02405900     14.28092100     13.37211900
H           1.05329800     13.89366600     13.72939300
H           1.82166900     15.29830300     12.99899100
S           3.14244800     14.40603300     14.80446200
O           2.34709900     14.89623300     15.91572500
O           3.69665500     13.00758000     14.93357500
O           4.23945100     15.28723800     14.29936200
O           6.75750800     14.50898200     13.80565800
H           7.28794600     15.27166700     13.99032200
H           5.82989900     14.80974200     14.03639700
