%nproc=24
%mem=10GB
#p M062X/6-311+G(2d,p) nosymm em=GD3 counterpoise=2

Title Card Required

0 1
P          10.12369500     15.56417500      9.01040800        1
O           9.13369100     14.48775500      8.96129100        1
O          10.47049800     16.19938500     10.42551100        1
H           9.57446500     16.50131100     10.88682800        1
O          11.55795300     15.07823000      8.52410800        1
H          12.20013700     15.88507600      8.59026200        1
O           9.82628200     16.85404800      8.12199100        1
H           8.96927400     16.69656800      7.56107000        1
O           7.32006300     16.31600200      6.79349200        2
H           7.37410500     15.35493200      6.81020200        2
H           6.70864100     16.54042100      7.50533900        2

