%chk=MPyPS.chk
%mem=60000MB
%nprocshared=16
#p opt freq B3LYP/6-311G** em=GD3BJ

Title Card Required

0 1
 C                 -0.74061600    0.76902100   -0.77898200
 C                 -1.68595400    1.76027200   -0.46663100
 C                 -2.91828400    1.40072100    0.03064800
 C                 -3.21646800    0.02915300    0.21989200
 C                 -2.26363800   -0.91951800   -0.10153700
 H                 -3.66595600    2.15091900    0.29111600
 H                  0.54233700    1.03087800   -1.11633900
 H                 -1.40161700    2.80530100   -0.60818500
 H                 -2.43964300   -1.98805800    0.03624600
 C                 -4.53487800   -0.37467000    0.77298500
 H                 -4.67798300   -1.46362800    0.80787700
 H                 -4.66509800   -0.00498700    1.80461900
 H                 -5.36802300    0.03551000    0.17987400
 N                 -1.04089400   -0.52368700   -0.60493500
 C                 -0.03348800   -1.56534500   -0.91765400
 H                 -0.54936600   -2.47958900   -1.27928200
 H                  0.59635600   -1.20560400   -1.77443400
 C                  0.84769600   -1.88367000    0.30897500
 H                  0.39457600   -1.45860900    1.23521700
 H                  0.85372500   -2.98009500    0.47436900
 C                  2.28143700   -1.39054200    0.15788200
 H                  2.72916700   -1.72561400   -0.79233500
 H                  2.91952000   -1.81879500    0.95208600
 S                  2.41317200    0.42165400    0.25530100
 O                  3.82822800    0.72368700    0.34805300
 O                  1.51273400    0.82492300    1.33295400
 O                  1.78312000    0.83503800   -1.10782600

