%chk=Im.chk
%mem=20GB
%nprocshared=22
#p opt freq b3lyp/6-311g(d,p) em=gd3bj

Title Card Required

0 1
 C                 -3.03475675   -1.02523175   -0.74568419
 C                 -1.63300675   -1.02523175   -0.74568419
 C                 -2.36606575    1.13701725   -0.74578819
 N                 -3.47448375    0.29527625   -0.74569319
 H                 -4.41481175    0.58597725   -0.74591019
 H                 -3.73634475   -1.85846475   -0.74558619
 H                 -0.98863375   -1.89793775   -0.74565919
 H                 -2.47498775    2.22078925   -0.74593519
 N                 -1.20900875    0.34556425   -0.74568419
 
 