          38
 Energy =  -1369.04678920 a.u.  #Cluster:    1
C           9.82682200      8.51410900      7.66576200
C           8.53425400      8.98924200      7.46778700
C           9.70792300     10.57686000      8.55155800
N          10.53602300      9.51379200      8.32871700
H          10.25293000      7.55246200      7.43569200
H           7.68918700      8.51713200      7.00570600
H           9.96739300     11.51479000      9.06840600
C          11.88692600      9.38583400      8.84667700
H          12.46617300     10.32217200      8.69971900
H          11.85287100      9.18932100      9.94847500
H          12.41824900      8.54514200      8.37292400
N           8.48108300     10.27087100      8.01700300
C           7.26919400     11.05070000      8.26125300
H           6.75815900     11.24511300      7.29195800
H           7.56470900     12.04719000      8.69096500
C           6.30803200     10.34794900      9.24694400
H           5.69032200     11.14042300      9.72839400
H           5.60860200      9.69349700      8.69496200
C           7.00248200      9.54130900     10.34172100
H           7.38682100      8.57850100      9.95283600
H           6.28423300      9.27205200     11.14034700
C           8.14769100     10.31759900     10.99784600
O           8.09057700     11.55495100     11.00824500
O           9.09787400      9.62639100     11.43755300
P          11.48145100     12.19989400     11.57198100
O          11.71388900     12.18149400     10.12287900
O          11.42724200     10.76066200     12.24308800
H          10.49698800     10.31039500     11.99138900
O          12.64213600     12.94472900     12.35710700
H          12.28474600     13.11565300     13.32752800
O          10.16531600     12.94856200     12.06391400
H           9.31439500     12.44121900     11.67464600
O           9.89110500      7.48566800     10.00604800
H           9.59380000      8.26696200     10.53772400
H           9.96727500      6.78572100     10.64426900
O          11.21016300     13.40172500     14.93142500
H          10.47530700     13.66473400     14.36027500
H          11.00766900     12.49519500     15.17629500
          38
 Energy =  -1369.04638780 a.u.  #Cluster:    2
C          10.37422000      8.13474900      7.67202400
C           9.33643000      9.01254600      7.36972200
C          10.23091900      9.63833800      9.33697900
N          10.90904000      8.54150500      8.89057900
H          10.74420400      7.29057500      7.12256300
H           8.67823200      9.03382000      6.52218600
H          10.42705200     10.17857300     10.27308000
C          11.99937300      7.89882600      9.60004900
H          11.75281900      6.84265900      9.81541600
H          12.93776500      7.97129200      9.01853300
H          12.17309500      8.40155900     10.58071400
N           9.26922200      9.94117900      8.40577400
C           8.27196800     11.00154400      8.54064700
H           8.10629500     11.47595600      7.54707200
H           8.68176900     11.81363600      9.20650200
C           6.94893200     10.46807300      9.11824300
H           6.25299200     11.33475700      9.21981200
H           6.47301100      9.76036600      8.41691800
C           7.11650200      9.81738400     10.48994100
H           7.64912600      8.85231100     10.42311900
H           6.13164100      9.58879500     10.93791000
C           7.85342800     10.77990200     11.42797400
O           7.47727800     11.95532700     11.46306100
O           8.83085200     10.30230700     12.06317300
P          10.71369300     13.12110300     11.53472300
O          10.93416400     12.60961100     10.16977400
O          10.82577400     12.02330700     12.67204700
H          10.00691400     11.34161100     12.55403600
O          11.84727000     14.17647000     11.90933400
H          11.62680800     14.53516000     12.85331400
O           9.36189200     13.90297800     11.77358500
H           8.56246000     13.19009000     11.70528900
O           9.85158700      7.94836500     11.38396200
H           9.45106900      8.81666100     11.67762300
H           9.75632000      7.38491700     12.14128200
O          12.85702000     10.54343500      9.48108400
H          13.65426100     10.80649200      9.93789100
H          12.25462200     11.29384000      9.63408200
          38
 Energy =  -1369.04637280 a.u.  #Cluster:    3
C           9.58883200      8.48648800      7.02913400
C           8.31790300      9.04797100      7.09940200
C           9.63359900     10.11128200      8.58505300
N          10.38766000      9.16692700      7.94579900
H           9.95374900      7.68253800      6.41763200
H           7.42507900      8.80276800      6.55512600
H           9.97236800     10.79406700      9.38423500
C          11.77808100      8.86187700      8.22838800
H          11.85764600      7.91368600      8.80672700
H          12.36049000      8.76659900      7.29606000
H          12.24703900      9.65878500      8.85117500
N           8.36905800     10.05991200      8.05538200
C           7.24879700     10.90112800      8.47382000
H           6.66457100     11.20271000      7.57714900
H           7.65965800     11.84829100      8.93951900
C           6.34055000     10.20097100      9.50060200
H           5.61933500     10.96315000      9.87474600
H           5.73998500      9.41268200      9.01025200
C           7.09048200      9.61172800     10.68980800
H           7.66181500      8.70858500     10.40025900
H           6.37868200      9.26866500     11.46659000
C           8.06408400     10.59343100     11.35339000
O           8.15099400     11.74502000     10.89183600
O           8.75201700     10.11907700     12.28190200
P          11.46663200     12.17397400     11.70013900
O          11.80611200     11.23575500     10.61708200
O          10.94848200     11.49463700     13.04198000
H          10.05221000     10.94823200     12.82036900
O          12.72208300     13.02593100     12.16082900
H          12.47048900     13.44923400     13.08818700
O          10.36931300     13.25386100     11.32431600
H           9.44412000     12.73298900     11.19432400
O          10.39244900      8.58219000     10.65023500
H           9.75509400      8.82659800     11.34985400
H          11.11421000      9.20012200     10.82046300
O          11.75256800     13.89276600     14.82222000
H          11.48510400     12.97284300     14.95616500
H          10.93867700     14.34255100     14.57986600
          38
 Energy =  -1369.04620410 a.u.  #Cluster:    4
C          10.56858400      7.85486000      8.07551300
C           9.43373100      8.49930300      7.58517100
C          10.12905800      9.60450900      9.41267900
N          10.98587100      8.56334000      9.19845000
H          11.07517600      6.98253800      7.71090800
H           8.82695100      8.26691400      6.73140500
H          10.19108400     10.32877000     10.23734900
C          12.10309700      8.24000300     10.06598900
H          11.96015400      7.24645200     10.53526700
H          13.05448700      8.25980600      9.50663900
H          12.17045200      8.98045500     10.90206700
N           9.18155500      9.58034600      8.42431800
C           8.12378400     10.57886200      8.28771400
H           7.91202100     10.74281200      7.20776300
H           8.51077000     11.56307000      8.68177300
C           6.83928500     10.18760300      9.03999900
H           6.16794400     11.07808200      9.03071400
H           6.30676500      9.38328900      8.50026400
C           7.06951800      9.76834300     10.48903200
H           7.55504400      8.77523300     10.54768300
H           6.10314100      9.65450700     11.01794500
C           7.89778600     10.79495700     11.26599600
O           7.83745900     11.98635500     10.94787300
O           8.63395000     10.31818000     12.17133600
P          11.15230700     12.58134700     11.96316200
O          11.72267600     11.72770600     10.90362500
O          10.58432700     11.82191000     13.22411900
H           9.75059300     11.21799500     12.88711900
O          12.28006400     13.54311300     12.54460400
H          11.83283300     14.12123000     13.27683800
O          10.02089100     13.57807600     11.47022800
H           9.12659100     13.02090600     11.31470500
O           9.81589000      7.99549900     11.59387600
H           9.37864200      8.85268900     11.84588500
H           9.74147700      7.46542800     12.37834900
O          10.89344500     11.83211700      8.11615100
H          10.90000800     12.74854500      7.84547000
H          11.27260100     11.85487200      9.01204400
          38
 Energy =  -1369.04541350 a.u.  #Cluster:    5
C           9.60524500      8.41814800      7.70203600
C           8.35217300      9.00054200      7.53821000
C           9.71957900     10.52743200      8.47087800
N          10.43613700      9.38196700      8.26850400
H           9.92924800      7.41019800      7.50923400
H           7.44478900      8.58507300      7.14493200
H          10.08861500     11.46043400      8.92448300
C          11.79997000      9.15733300      8.71438400
H          12.21175900      8.22969500      8.28589400
H          12.45707400     10.01198500      8.45109500
H          11.82334300      9.05551600      9.82892900
N           8.44372700     10.30841600      8.01428200
C           7.32046000     11.21174400      8.25965800
H           6.83002900     11.45749300      7.29208600
H           7.72027900     12.17159600      8.69515700
C           6.29868500     10.61315800      9.25102300
H           5.71733900     11.46164800      9.67785900
H           5.57460000      9.97230600      8.71563400
C           6.92932200      9.82568000     10.39743800
H           7.22474100      8.80868300     10.07370600
H           6.19880500      9.67462900     11.21548000
C           8.14925700     10.53266400     10.99536100
O           8.25125800     11.75944900     10.84082100
O           8.98911400      9.79251500     11.55771600
P          11.67116200     12.04342100     11.44791300
O          11.92238400     11.78128300     10.02558200
O          11.41765100     10.74642600     12.32699200
H          10.45415500     10.36500600     12.08154200
O          12.90544800     12.74975900     12.15343900
H          12.55518500     13.11648700     13.07066100
O          10.45517400     13.02016300     11.76969600
H           9.55221900     12.56677900     11.43203100
O           9.71322300      7.59525900     10.13895700
H           9.45394100      8.39666400     10.65752000
H           9.78965300      6.91221300     10.79615600
O          11.48701300     13.78976100     14.56543700
H          10.80618300     14.03173100     13.92239300
H          11.17107700     12.96676000     14.94689400
          38
 Energy =  -1369.04500410 a.u.  #Cluster:    6
C          10.09593500      7.88782200      8.59232300
C           8.99501500      8.45883300      7.96070500
C          10.16373300     10.10354300      8.96207200
N          10.81021400      8.92252800      9.19049100
H          10.37645700      6.85410900      8.69083500
H           8.20654200      7.99782900      7.39883400
H          10.45830700     11.09585700      9.32149500
C          11.98809100      8.76001000     10.02335800
H          11.71828100      8.89709700     11.10032400
H          12.41860500      7.75176100      9.91313200
H          12.76296200      9.51459900      9.77056100
N           9.05952600      9.83222600      8.19231200
C           8.01542100     10.80613100      7.88540800
H           7.78302200     10.75919000      6.79772700
H           8.41427500     11.83602600      8.09449500
C           6.73326600     10.58339200      8.71973000
H           6.22520400     11.56983600      8.81605400
H           6.03645900      9.92141200      8.17297400
C           6.97287000     10.02150000     10.11820400
H           7.23754200      8.94635300     10.08253900
H           6.04526100     10.07449600     10.72154500
C           8.06118800     10.77606300     10.88444600
O           8.38479400     11.90836500     10.49615100
O           8.59058300     10.14950000     11.83328600
P          11.40082700     12.13861400     12.27172300
O          12.17952800     11.34869900     11.30371100
O          10.53404700     11.30581600     13.29577400
H           9.73017100     10.84207600     12.75000900
O          12.39062500     12.98172700     13.19293300
H          11.80574300     13.50275700     13.86730300
O          10.45799600     13.23609600     11.62676400
H           9.59601000     12.75086200     11.22260600
O           9.45606900      7.66368000     11.11268000
H           9.15401900      8.56431300     11.38165000
H           9.30476400      7.13154900     11.88633400
O          12.61612500     11.71593500      8.46833200
H          12.85139300     12.62419800      8.29331500
H          12.57914200     11.66521800      9.43788000
          38
 Energy =  -1369.04308470 a.u.  #Cluster:    7
C           9.76081700      8.80788600      6.78635800
C           8.74789300      9.75650000      6.88393700
C           9.94220300      9.81892900      8.78923600
N          10.49079900      8.87006000      7.97210700
H           9.99432000      8.12794300      5.98966900
H           7.97912000     10.01776200      6.18138000
H          10.30663100     10.09477700      9.79564200
C          11.59719500      8.00615400      8.34008500
H          11.25156200      6.95669900      8.44521700
H          12.40693700      8.05901900      7.59212400
H          12.00566700      8.29872200      9.33560500
N           8.88297300     10.37780700      8.12515600
C           7.99220300     11.39898900      8.67550400
H           7.70191800     12.10595800      7.86616300
H           8.55846700     12.01166100      9.43466700
C           6.74652900     10.77691100      9.33057200
H           6.14558300     11.61133900      9.76528400
H           6.10901700     10.28824300      8.57275300
C           7.08453600      9.79191400     10.44726000
H           7.52094400      8.85802600     10.05149200
H           6.17077800      9.49029400     10.99259100
C           8.03778800     10.44800800     11.45463200
O           7.80134200     11.60643000     11.80906100
O           9.02850700      9.75819900     11.81299900
P          11.17980100     12.39710200     11.48444300
O          11.09874900     12.05698200     10.05768100
O          11.28620100     11.14928800     12.46098900
H          10.40263600     10.56649700     12.33247600
O          12.45485900     13.27510900     11.82878400
H          12.29053200     13.68104000     12.78237900
O           9.97191400     13.26742600     12.05652400
H           9.09108300     12.67954700     12.02700600
O           9.78514300      7.67477400     10.38595700
H           9.48500800      8.44174200     10.96117700
H           9.75281900      6.92877400     10.97080800
O          11.57703800     14.36652700     14.44356100
H          11.44224700     13.55667400     14.94308900
H          10.72825800     14.52030600     14.00565300
          38
 Energy =  -1369.04173710 a.u.  #Cluster:    8
C          10.51350900      8.45595000      8.29173700
C           9.13662000      8.28423500      8.40179800
C           9.56354800     10.49359800      8.41176900
N          10.75334200      9.82682300      8.27643100
H          11.30499300      7.72330700      8.27550900
H           8.55814100      7.38178100      8.45487600
H           9.43595600     11.57545800      8.49766300
C          12.06458100     10.43781600      8.16141000
H          12.52097300     10.20798400      7.18369100
H          12.01616500     11.54201300      8.28350600
H          12.74155400     10.06640700      8.96661800
N           8.56786800      9.55527100      8.46502400
C           7.14976400      9.84517700      8.67034100
H           6.58255600      9.50879900      7.77317500
H           7.01853200     10.96072100      8.75985800
C           6.58592000      9.18124800      9.94240100
H           5.63722000      9.70341400     10.19739800
H           6.31242100      8.12903800      9.73405800
C           7.51799300      9.23081800     11.14693400
H           8.35492600      8.50664500     11.03910000
H           6.98230200      8.90852900     12.06351300
C           8.14273800     10.60050000     11.40889800
O           8.08593500     11.47267200     10.52297600
O           8.73694700     10.72041400     12.50458700
P          11.30098700     12.69375500     11.30829000
O          12.08505000     11.56110100     10.80224000
O          10.66043300     12.57021600     12.74445400
H           9.85020300     11.86004600     12.69377700
O          12.23456900     13.98197100     11.41216600
H          11.64861500     14.75427700     11.76814600
O          10.14980700     13.16171000     10.31382100
H           9.26911000     12.59505700     10.49978900
O          10.01918400      8.38421200     13.02349300
H           9.51672900      9.22794600     12.91583200
H          10.59018000      8.54527300     13.76984100
O          11.45454900      8.58423200     10.63528100
H          10.97209600      8.37054700     11.45317900
H          11.71398900      9.50105700     10.76644300
          38
 Energy =  -1369.04141190 a.u.  #Cluster:    9
C           9.92798700      8.91072100      6.80762900
C           8.88614100      9.82530200      6.92564100
C           9.89160900      9.65792200      8.93012700
N          10.53876700      8.82791200      8.05772400
H          10.25534200      8.34444800      5.95692500
H           8.18383900     10.16687700      6.18882600
H          10.14308200      9.79548200      9.99806400
C          11.63061800      7.94373900      8.42043000
H          11.28512700      6.88852900      8.44020900
H          12.47549700      8.04703500      7.71821400
H          11.99049700      8.17070300      9.45094600
N           8.88384200     10.28043900      8.24379100
C           7.93408100     11.22842800      8.82478500
H           7.60439600     11.94469400      8.03899400
H           8.46368500     11.84960000      9.60314000
C           6.72334000     10.52028100      9.45815600
H           6.08098500     11.30889300      9.91788300
H           6.11152900     10.02548200      8.68293300
C           7.10447000      9.51561100     10.54363900
H           7.54392100      8.59785400     10.11454300
H           6.20829700      9.18736500     11.10293900
C           8.07292300     10.16468200     11.54083800
O           7.79626200     11.27943200     11.98680900
O           9.12826900      9.51780800     11.78498800
P          11.12100400     12.31268700     11.49084100
O          10.97881600     12.08255200     10.04968200
O          11.35407600     11.00151800     12.35967800
H          10.48990300     10.39091800     12.26811900
O          12.36086300     13.23549200     11.84547200
H          12.23191600     13.54420800     12.83993400
O           9.90163700     13.06029100     12.20084800
H           9.05834300     12.42723500     12.18542300
O           9.78480200      7.34118100     10.41883200
H           9.51603900      8.11882700     10.98734900
H           9.72707100      6.59628100     11.00373400
O          11.57510700     14.05056400     14.58755700
H          11.50752300     13.19498900     15.01973000
H          10.69840900     14.19403400     14.20464100
          38
 Energy =  -1369.04110840 a.u.  #Cluster:   10
C          10.01608400      8.92443300      6.89188800
C           8.88201100      9.73007300      6.91669500
C           9.85665300      9.84324400      8.94002700
N          10.60541800      9.01462400      8.15173400
H          10.41891200      8.32490200      6.09824600
H           8.16371600      9.93076700      6.14429400
H          10.06976800     10.09653800      9.99450100
C          11.77622800      8.28607600      8.60321700
H          12.62267000      8.42523400      7.90895900
H          12.08373600      8.63179400      9.61744700
H          11.54536600      7.20447000      8.70338300
N           8.80396400     10.29405800      8.18967700
C           7.74964800     11.18511900      8.67212700
H           7.36390600     11.79003500      7.82079600
H           8.19611800     11.92534500      9.39658400
C           6.60511400     10.41438000      9.35360900
H           5.87859500     11.17028000      9.73663000
H           6.06021400      9.79538200      8.61865100
C           7.06452500      9.54988200     10.52599700
H           7.59894700      8.64671500     10.18186700
H           6.19549900      9.18304500     11.10387300
C           7.94725500     10.37358900     11.47187400
O           7.56671900     11.49458500     11.80825300
O           9.05060900      9.84696400     11.79113000
P          10.76664300     12.80699800     11.25934600
O          10.64411700     12.47460200      9.83690900
O          11.09562400     11.56470400     12.21071800
H          10.28903200     10.87743600     12.17843800
O          11.95948800     13.80958300     11.55698400
H          12.13896400     13.76293600     12.58902700
O           9.50577500     13.50588300     11.92556800
H           8.71769100     12.80037200     11.94271700
O           9.94497700      7.65081900     10.60269100
H           9.59108500      8.43878700     11.10665100
H           9.93893700      6.94734400     11.23934200
O          12.28380400     13.23029200     14.47336000
H          11.43478800     13.51185400     14.82268300
H          12.12741200     12.32687300     14.16412700
          38
 Energy =  -1369.03930680 a.u.  #Cluster:   11
C          10.15317000      7.89721900      7.57538100
C           9.13694100      8.80654200      7.30172400
C           9.92277900      9.23961400      9.36620600
N          10.61526700      8.17512700      8.86180200
H          10.55880800      7.11224000      6.96564300
H           8.52862600      8.91593900      6.42352800
H          10.03806000      9.70172000     10.36947200
C          11.72729800      7.51297800      9.51783100
H          12.69122900      7.82636200      9.05866400
H          11.78528500      7.80066200     10.59525300
H          11.63137000      6.41612100      9.45439700
N           9.01421500      9.63225400      8.41819400
C           8.02416400     10.69183800      8.60858400
H           7.79416100     11.16156200      7.62589200
H           8.47842000     11.50643800      9.24317200
C           6.74258500     10.15935400      9.27370500
H           6.04549900     11.02234300      9.39982900
H           6.23015300      9.43638300      8.61506900
C           6.99391200      9.53807900     10.64703700
H           7.50788700      8.56695900     10.57769800
H           6.03761800      9.34081800     11.16741600
C           7.80679000     10.52319400     11.49644100
O           7.34773300     11.65245400     11.67332600
O           8.92931900     10.11113400     11.89456200
P          10.47314100     13.16869800     11.45280500
O          10.74941000     12.73427200     10.07938700
O          10.65506300     12.03319400     12.55402600
H           9.87679000     11.30845600     12.42057400
O          11.50385700     14.29264700     11.90717200
H          11.23267400     14.58880100     12.85989800
O           9.05620700     13.82015900     11.72587100
H           8.33673800     13.03711100     11.75149800
O          11.69611800      9.39450300     12.23010000
H          10.73070200      9.52187200     12.26686000
H          12.03624000     10.14566500     12.73322600
O          12.31390300     10.22830500      9.56097500
H          12.29493400     10.01332600     10.50470700
H          12.04295300     11.15567000      9.53209100
          38
 Energy =  -1369.03188440 a.u.  #Cluster:   12
C          10.18977300      7.99649000      7.77952500
C           9.03734800      8.73615900      7.52485300
C          10.17681800      9.76477400      9.18552000
N          10.88514500      8.64874100      8.80749700
H          10.53323100      7.08762600      7.31242600
H           8.25402800      8.55372400      6.80797900
H          10.47635200     10.50811100      9.97114000
C          12.11493700      8.19775400      9.46266200
H          12.63556500      7.42618400      8.87800500
H          12.81512100      9.06495800      9.60716200
H          11.86913700      7.79067100     10.47361700
N           9.04423900      9.83519400      8.39797500
C           7.97009200     10.84013700      8.55544700
H           7.66512800     11.21022100      7.55060000
H           8.38463900     11.72982900      9.10677300
C           6.76313600     10.26443200      9.31449100
H           6.02109300     11.08877600      9.43490700
H           6.26354600      9.47767600      8.71806700
C           7.11757700      9.71460000     10.69622200
H           7.69814100      8.77081800     10.62326300
H           6.19385900      9.45064600     11.25108200
C           7.89768900     10.73522800     11.51511700
O           7.53718400     11.92946300     11.51130000
O           8.92393400     10.29924800     12.13027000
P          10.66645600     12.92586400     11.59255500
O          10.89227000     12.23610500     10.28251200
O          10.70036400     11.96305900     12.88629600
H           9.93157400     11.19573700     12.91211200
O          11.85090100     14.01488800     11.89619800
H          11.71256300     14.60201700     12.69007400
O           9.31776300     13.79855400     11.73469200
H           8.40159200     13.23703700     11.80241000
O           9.91820900      7.85159500     11.51667400
H           9.62888100      8.77343800     11.76151700
H           9.77517900      7.33069400     12.29617900
O          13.18437800     11.00527100      9.56523800
H          13.65241100     11.36346100     10.31486100
H          12.40976400     11.60083500      9.44280000
          38
 Energy =  -1369.02328160 a.u.  #Cluster:   13
C          10.16429100      8.18268000      7.72292200
C           8.95652300      8.84408800      7.51558000
C          10.08153500      9.93475400      9.14780400
N          10.84768600      8.87048200      8.73460300
H          10.55248600      7.30336100      7.23399100
H           8.16284800      8.61445700      6.82379200
H          10.37504700     10.68123200      9.93738100
C          12.12670800      8.49220000      9.33629900
H          11.95647000      8.13021700     10.37927200
H          12.63971400      7.70749200      8.76345900
H          12.80695500      9.39100800      9.39745500
N           8.91840500      9.93335600      8.39994100
C           7.76537700     10.83636600      8.60953900
H           7.39896500     11.19765000      7.62276700
H           8.10612700     11.74663400      9.17956400
C           6.63834600     10.13810400      9.38988000
H           5.82887900     10.88916800      9.54485900
H           6.19595700      9.31769000      8.79398000
C           7.08611700      9.60345600     10.74998800
H           7.71043500      8.69052200     10.64356400
H           6.20589600      9.28466300     11.34597300
C           7.85354300     10.64602200     11.55182400
O           7.59472100     11.85804700     11.38621400
O           8.76875300     10.20859100     12.31715500
P          10.75297600     12.74180800     11.97124100
O          11.25663600     11.98713800     10.77863700
O          10.45165800     11.86887000     13.29093300
H           9.67346100     11.11517900     13.19111700
O          11.86545400     13.83044300     12.47589900
H          11.60224200     14.39872300     13.25155000
O           9.43137200     13.63884800     11.73780800
H           8.49389100     13.11175000     11.74037300
O          10.04008000      7.95287300     11.46546900
H           9.71223800      8.82041300     11.82015600
H           9.93358700      7.33673800     12.17965100
O          13.21977700     11.23453500      9.53513900
H          13.14136500     11.34031900     10.50016100
H          12.56349000     11.86014500      9.19408200
          38
 Energy =  -1369.02177710 a.u.  #Cluster:   14
C           9.97884500      7.66713900      9.01523700
C           8.99947200      8.27342000      8.23282500
C          10.44267900      9.87454000      8.92321700
N          10.86793300      8.67169100      9.42929700
H          10.08215700      6.63238900      9.30598500
H           8.14794800      7.83392200      7.74019400
H          10.91283900     10.88277300      9.10370600
C          12.03067800      8.48818700     10.29853200
H          12.71571800      7.72106700      9.90842900
H          12.58842200      9.44588000     10.42198000
H          11.68837000      8.18249700     11.33180200
N           9.29985600      9.64359300      8.17799700
C           8.51324400     10.71129500      7.52809500
H           8.44395000     10.49235500      6.43768500
H           9.10247600     11.67309100      7.62152700
C           7.10562400     10.91731700      8.11698500
H           6.87814400     12.00707500      8.04757700
H           6.35806900     10.40735800      7.47544600
C           6.88901300     10.46534700      9.55908300
H           6.83984800      9.35719300      9.63086300
H           5.89541600     10.82058900      9.91433600
C           7.93506900     10.97251000     10.53068600
O           8.36616200     12.13162200     10.54178200
O           8.34214600     10.05195800     11.35337300
P          11.23609200     11.76475000     12.07860600
O          11.77778500     11.58532400     10.69494600
O          10.41833800     10.55090100     12.66164500
H           9.27381400     10.37844800     12.14462900
O          12.40779700     12.11854500     13.16790000
H          12.09485300     12.49297500     14.03568800
O          10.26101300     13.07889400     12.23662700
H           9.34710800     13.02540000     11.78140500
O          10.36934300      8.05855600     12.69885200
H           9.59839100      8.50114300     12.30995200
H          10.74382600      8.72638100     13.30324900
O          10.48133700     12.74817600      8.68765700
H           9.77951100     13.00603600      9.30698000
H          11.30673400     12.73968000      9.22524400
          38
 Energy =  -1369.02062970 a.u.  #Cluster:   15
C           9.51029800      8.58671200      7.01790100
C           8.49549600      9.53138300      7.13678100
C          10.11935400     10.06588300      8.61719800
N          10.51315200      8.93498900      7.93780000
H           9.56918800      7.72380100      6.37452500
H           7.56356500      9.60392800      6.60049200
H          10.68834200     10.63004700      9.41412300
C          11.69611300      8.13394800      8.26935800
H          12.05642900      7.56185600      7.39971000
H          12.52014800      8.77179300      8.64159200
H          11.43104600      7.41455600      9.09102300
N           8.88520400     10.44276100      8.13188500
C           8.07415000     11.54441000      8.69659900
H           7.81523900     12.26175200      7.88622300
H           8.72302500     12.11743500      9.42912800
C           6.80785900     11.02319000      9.39311700
H           6.33503300     11.88922200      9.91499500
H           6.06906500     10.66987300      8.64899700
C           7.06725000      9.91725600     10.41824600
H           7.38430400      8.97440500      9.93138900
H           6.12890900      9.67569500     10.95877500
C           8.11501500     10.35698500     11.43465200
O           7.91308700     11.41551400     12.07513600
O           9.15076100      9.63657700     11.55095200
P          11.11190500     12.17697300     11.67705400
O          10.73607000     12.18571600     10.23099500
O          11.43850900     10.67317600     12.21403000
H          10.60715000     10.02233800     12.22921900
O          12.38146600     13.07628400     12.10002500
H          12.32443300     13.47937500     13.09319500
O          10.00606700     12.73274100     12.74166500
H           9.01994700     12.24784500     12.69544900
O           9.69675900      7.32492600     10.29115800
H           9.45591000      8.22167100     10.66087000
H           9.64086100      6.73344000     11.03175700
O          11.36489200     13.97065800     14.31996800
H          10.65293400     14.42194300     13.82205300
H          10.94107400     13.13895600     14.61197700
