%nproc=24
%mem=50GB
#p M062X/6-311+G(2d,p) nosymm em=GD3 counterpoise=4

Title Card Required

0 1
P          13.59503300     14.48538200      7.25340300       1
O          13.46903200     13.16635000      7.88922700       1
O          12.27160000     15.05679700      6.57698100       1
H          11.51801900     15.11009900      7.28952800       1
O          14.14604400     15.66732900      8.14964600       1
H          13.76975200     15.56684900      9.13667500       1
O          14.60563300     14.44388100      6.02875300       1
H          14.67149200     15.41087300      5.65970400       1
O          11.01567900     12.23100500      8.97854400       2
H          10.61860500     11.76011300      8.24560300       2
H          11.89643400     12.50788800      8.63744600       2
O          10.29907300     15.00738200      8.69814300       3
H          10.41001700     14.06726400      8.89644500       3
H          10.75685200     15.46393100      9.41259900       3
O          11.07684200     11.42189100     11.67340800       4
H          10.47507800     10.69801300     11.81134100       4
H          11.03303600     11.63738800     10.72682000       4     

