%chk=Py.chk
%nprocshared=16
%mem=50GB
#p 6-311+g(2d,p) nosymm em=gd3 m062x

Title Card Required

0 1
 C                 13.03428600   10.81702900    8.59199000
 C                 12.84356400   12.16892700    8.89803800
 C                 12.16506400   12.49693400   10.07140300
 C                 11.70045400   11.47748600   10.89831100
 C                 11.93192100   10.14729800   10.52178100
 N                 12.58674300    9.82829000    9.38986800
 H                 12.00070500   13.54088200   10.33706500
 H                 13.55928100   10.49751400    7.68444100
 H                 13.21671000   12.94286500    8.23446700
 H                 11.16821100   11.70159400   11.81830100
 H                 11.58635700    9.30233500   11.13849000

