%nproc=24
%mem=50GB
#p M062X/6-311+G(2d,p) nosymm em=GD3 counterpoise=5

Title Card Required

0 1    
C          10.39885200      9.66390500     11.86697100         1
H          11.34178000      9.46478100     11.30901200         1
H          10.66203600      9.95254300     12.89287500         1
H           9.83913500      8.70759100     11.90626400         1
C           8.39508900     11.06435900     12.01839700         1
H           7.75911400     11.81658600     11.52087900         1
H           7.77300200     10.15930600     12.18524300         1
H           8.68963900     11.45921000     13.00246100         1
C          10.44873500     11.95349800     11.01435000         1
H           9.84029600     12.84391500     10.75392300         1
H          11.00896800     12.18757800     11.93021100         1
H          11.18556000     11.81252000     10.19174000         1
C           9.15337300     10.18993500      9.83403700         1
H           8.43244000      9.35684100     10.00128900         1
H          10.05557600      9.72373700      9.36050100         1
C           8.54133100     11.21878300      8.88043800         1
H           9.27196900     12.01955200      8.63006700         1
H           7.67039700     11.72811700      9.32820600         1
C           8.12389700     10.50702300      7.58848100         1
H           7.82076900     11.24030200      6.81914400         1
H           7.25396300      9.84419400      7.75449700         1
N           9.59320200     10.73425800     11.17915000         1
C           9.31658700      9.69260700      7.07606800         1
O          10.21489100     10.28656400      6.45850000         1
O           9.34362400      8.47628000      7.38501000         1
O           7.45827700      7.41433600      8.90019200         2
H           8.15869400      7.84122100      8.31746700         2
H           7.38358900      6.53230400      8.55684800         2
O           7.60697400      7.81189600     11.64656500         3
H           7.05606200      7.13165900     12.01807800         3
H           7.56938500      7.66199400     10.67788500         3 
O          10.21534300     14.22796900      9.24931000         4
H          10.69570700     13.63467400      8.63384800         4
H          10.26290400     15.08871000      8.84871400         4 
O          11.50995200     12.46849100      7.61863200         5
H          12.16919400     11.91049800      8.04322200         5
H          10.99325900     11.83122900      7.08058900         5 


