%nprocshared=24
%mem=50GB
#p M062X/6-311+G(2d,p) nosymm em=GD3 counterpoise=2 scrf=(smd,solvent=water)

Title Card Required

0 1
 C                 -3.09294100   -2.07135700   -1.30417900        1
 H                 -3.58792600   -1.51060200   -2.09365000        1
 H                 -3.65675500   -2.97098300   -1.06901700        1
 H                 -2.07855200   -2.32761700   -1.60014800        1
 C                 -2.25543200    0.04445400   -0.43298800        1
 H                 -2.81919000    0.51508400   -1.23820000        1
 H                 -1.30718400   -0.30542200   -0.83284800        1
 C                 -2.34059000   -1.98426600    1.01414800        1
 H                 -1.31114900   -2.16448400    0.71203900        1
 H                 -2.37202100   -1.41478600    1.93823900        1
 H                 -2.86654600   -2.92689600    1.14574000        1
 C                 -4.43326800   -0.88983900    0.35327400        1
 H                 -4.96295800   -1.82627900    0.51189200        1
 H                 -4.41018000   -0.32056700    1.27753600        1
 H                 -4.91120600   -0.31546100   -0.43713000        1
 C                 -2.04321900    1.02578300    0.71309200        1
 H                 -1.43879600    0.58654000    1.50693800        1
 H                 -3.00231400    1.30373300    1.15289300        1
 C                 -1.40008700    2.33186600    0.24516700        1
 H                 -1.48670800    3.09059300    1.02332200        1
 H                 -1.86161600    2.72074500   -0.66392300        1
 N                 -3.03131000   -1.21353200   -0.07205700        1
 S                  0.36900300    2.26483600   -0.09942000        1
 O                  1.01822600    1.73199800    1.13380100        1
 O                  0.56475700    1.33910800   -1.25419400        1
 O                  0.77502300    3.64386200   -0.40656800        1
 P                  2.55890500   -1.38091000    0.04569300        2
 O                  1.57836900   -2.47574900    0.24044600        2
 O                  2.39402100   -0.55246500   -1.29286600        2
 H                  1.69530700    0.16847600   -1.26474400        2
 O                  2.64442200   -0.33722300    1.23283800        2
 H                  2.00828000    0.43653800    1.17223500        2
 O                  4.02184100   -1.99605900   -0.05122400        2
 H                  4.72100000   -1.33522900   -0.18040400        2

