%nproc=24
%mem=50GB
#p M062X/6-311+G(2d,p) nosymm em=GD3 counterpoise=2

Title Card Required

0 1
C          10.32048400      8.12366500     10.25075000       1
H          10.54284300      7.72833200      9.23846100       1
H          10.20117400      7.29032900     10.95333200       1
H          11.22823200      8.69980600     10.54756900       1
C           9.29483900     10.02318700      9.10415000       1
H           9.23410000      9.48278200      8.12981000       1
H          10.35922200     10.40233600      9.17108900       1
C           8.95297000      9.68979000     11.55290000       1
H           7.97303700     10.17921300     11.64959400       1
H           9.08722700      8.98485600     12.38597900       1
H           9.72689200     10.49165400     11.68234700       1
C           7.89651800      8.16743400      9.95571500       1
H           7.72385700      7.44184900     10.76673700       1
H           6.99155200      8.79101700      9.85434500       1
H           8.01558700      7.60242700      9.01286300       1
C           8.32611500     11.20685700      9.13105200       1
H           8.55467300     11.88264000      9.98971000       1
H           7.28229800     10.87213400      9.27116000       1
C           8.43892900     11.99026400      7.82619500       1
H           7.64204900     12.75258800      7.76704700       1
H           8.29853000     11.34334600      6.94633600       1
N           9.10746200      9.01487200     10.22404600       1
S          10.03679300     12.85943700      7.65632900       1
O          10.14988500     13.65946200      8.89992300       1
O          11.04100500     11.72922000      7.67233600       1
O           9.94722300     13.58493700      6.40182900       1
P          12.55057500     12.00869300     10.84135300       2
O          11.66590800     10.93159700     11.30819800       2
O          13.17593900     11.78737900      9.40213600       2
H          12.38923400     11.74924400      8.68703300       2
O          11.97376900     13.47475500     10.90589300       2
H          11.23777200     13.59588200     10.13121300       2
O          13.83690000     12.07892500     11.78392000       2
H          14.42483700     12.85360000     11.43723000       2



