          26
 Energy =     -0.32930900 a.u.  #Cluster:    1
C           6.29373300     15.13620600     10.33441100
C           6.20360500     16.46472700      9.79667400
C           5.95429600     17.55138800     10.63956000
C           5.80127900     17.29171100     11.99047700
C           5.89038700     15.98311500     12.51121200
C           6.13644200     14.88870900     11.69956600
H           5.88777300     18.55672500     10.23142700
H           5.60551000     18.11265000     12.67823500
H           5.76097600     15.83942800     13.58329300
H           6.20522100     13.88325500     12.10032000
H           6.87013100     13.33109800      9.30200400
C           6.61834200     15.11262500      8.11440400
H           6.82610000     14.72039600      7.12581700
N           6.53131000     14.29286800      9.24342400
N           6.41516100     16.40519100      8.41238900
P           9.86150100     16.48003400      8.27090000
O           9.54070200     15.20799700      7.62620400
O           8.92276900     17.71952700      7.96857400
H           7.91246200     17.40519000      7.93524800
O           9.91948200     16.29531300      9.84929000
H          10.14056000     17.20191800     10.28151600
O          11.29986700     17.10326300      7.96878400
H          11.27626000     17.49989000      7.01986400
O           8.51243400     12.68389300      8.89440100
H           8.89856200     13.44091100      8.42415800
H           9.13514300     12.50198900      9.59786100
          26
 Energy =     -0.32397900 a.u.  #Cluster:    2
C           6.01430400     15.45363200     10.05610200
C           6.76948800     16.56373800     10.56765400
C           6.45259600     17.86869500     10.18178300
C           5.39161800     18.03880700      9.30828200
C           4.64625400     16.94479700      8.82139600
C           4.94309300     15.63985300      9.18085100
H           7.03446500     18.70792100     10.55892000
H           5.11636000     19.04234500      8.98431500
H           3.81404400     17.14042900      8.14444100
H           4.36480000     14.80115800      8.80821800
H           6.37669800     13.37158200     10.36462200
C           7.66333400     14.74185800     11.41061500
H           8.31103800     14.05352200     11.93959800
N           6.58527100     14.30911700     10.62398100
N           7.77784000     16.07467000     11.40873200
P          10.12369500     15.56417500      9.01040800
O           9.13369100     14.48775500      8.96129100
O          10.47049800     16.19938500     10.42551100
H           9.57446500     16.50131100     10.88682800
O          11.55795300     15.07823000      8.52410800
H          12.20013700     15.88507600      8.59026200
O           9.82628200     16.85404800      8.12199100
H           8.96927400     16.69656800      7.56107000
O           7.32006300     16.31600200      6.79349200
H           7.37410500     15.35493200      6.81020200
H           6.70864100     16.54042100      7.50533900
          26
 Energy =     -0.32371300 a.u.  #Cluster:    3
C           6.41864800     15.63244500     11.15908700
C           5.97275400     15.97491500      9.83900000
C           5.33173800     17.19382900      9.60521300
C           5.15575800     18.04196700     10.68576000
C           5.60288500     17.70032100     11.97895900
C           6.23837300     16.49710400     12.23935600
H           4.99182400     17.45139800      8.60551400
H           4.66142500     19.00133600     10.54191200
H           5.44224200     18.40944200     12.79038700
H           6.58811900     16.23931700     13.23309500
H           7.57800900     13.93694500     11.74068400
C           6.92024600     13.99573400      9.69934100
H           7.31983900     13.06051100      9.32720200
N           6.98665100     14.35478300     11.05425900
N           6.31157500     14.93237200      8.96159700
P           9.76850800     15.78935300      8.99188300
O           9.61719300     14.47518000      9.60077800
O           8.75732300     16.14999300      7.80011300
H           7.81023600     15.77235000      7.98652500
O           9.58556600     16.92933400     10.08276400
H           9.74170600     17.84443600      9.64411600
O          11.15834000     16.12814200      8.30345400
H          11.01625100     16.14420300      7.26609700
O          10.45960800     16.12787000      5.48976100
H           9.60955000     16.55370400      5.66907400
H          10.23564300     15.20303600      5.35407800
          26
 Energy =     -0.32339500 a.u.  #Cluster:    4
C           6.71390800     15.56462800     10.94362500
C           6.83106800     16.97821600     10.70855200
C           5.85622000     17.65135100      9.96863300
C           4.79880900     16.90722700      9.47165300
C           4.69659800     15.51884900      9.69787100
C           5.64607200     14.82636100     10.43189800
H           5.93567900     18.72433100      9.80740900
H           4.01532500     17.40087500      8.89746800
H           3.84040800     14.98453300      9.28565900
H           5.56564100     13.75770400     10.60559600
H           8.15783500     14.28295500     11.85282700
C           8.56966500     16.38601600     11.91116300
H           9.49810500     16.39505400     12.46964100
N           7.80816300     15.21540200     11.74389100
N           8.00221300     17.44345900     11.32191500
P          10.10394900     15.38694800      8.94417500
O          10.02654600     14.88208400     10.30980100
O           9.46292100     16.83559500      8.68133700
H           9.36211800     17.35682400      9.55998000
O          11.60953300     15.50443600      8.46244700
H          11.61189500     15.79030100      7.47162600
O           9.40061500     14.53038100      7.81130300
H           8.50893800     15.00833100      7.53026600
O           7.02214700     15.97618200      7.20587200
H           6.39654600     15.79016200      7.91709200
H           7.38908900     16.84181500      7.42831400
          26
 Energy =     -0.32223600 a.u.  #Cluster:    5
C           5.89228400     14.80124100      9.73004100
C           6.68386700     15.76146700     10.44514900
C           6.41502100     17.12897000     10.32758400
C           5.34913500     17.50239500      9.52778400
C           4.55822300     16.55033700      8.84880600
C           4.81604400     15.19217800      8.93030300
H           7.04738400     17.85824600     10.83565200
H           5.11143200     18.55939500      9.40618600
H           3.72467800     16.90472200      8.24124500
H           4.20925600     14.46430400      8.40303400
H           6.15190500     12.68132900      9.65045700
C           7.54480700     13.78498400     10.87222700
H           8.18153500     12.98963600     11.23486500
N           6.45193500     13.55244500     10.02195900
N           7.68676400     15.08280400     11.14932300
P          10.10893300     16.25337000      9.10070600
O           9.63649500     15.13862500      8.28412700
O          10.31665300     16.04490200     10.65994000
H           9.37343500     15.85242800     11.09724000
O          11.55650600     16.73876200      8.64931000
H          11.84635900     17.50126400      9.27916300
O           9.21018600     17.57750400      9.06913600
H           8.55296600     17.52749200      8.27468200
O           7.29260300     17.09877800      6.93056000
H           7.80696200     16.41315600      6.49005200
H           6.65463600     16.61928600      7.47048000
          26
 Energy =     -0.32196100 a.u.  #Cluster:    6
C           5.97028800     14.90131400     10.74482900
C           6.76062800     16.01307700     10.29940400
C           6.55769900     17.29481300     10.84496200
C           5.57357100     17.42836500     11.80932900
C           4.79245600     16.32407000     12.24190700
C           4.97393700     15.05197800     11.72436500
H           7.16879300     18.13562800     10.51561500
H           5.38650600     18.40377800     12.25939700
H           4.03287700     16.49339600     13.00571300
H           4.37991900     14.20643700     12.05726800
H           6.08124200     12.84160200     10.09904800
C           7.45093300     14.22279600      9.16621100
H           8.01490400     13.55540300      8.46008800
N           6.42616200     13.78132900     10.01118800
N           7.66218600     15.55529500      9.30658700
P           9.38087100     16.52225300      8.45969800
O           9.59295900     15.30238200      7.64057000
O           8.26279400     17.65393700      7.96909300
H           7.35270600     17.35943400      7.74796900
O           9.74298900     16.55806800     10.07327500
H          10.47624200     17.20400900     10.30806000
O          10.60413300     17.64889300      8.18196600
H          10.46168000     18.31467300      7.48064800
O           9.19561800     12.96657800      7.23371500
H           9.01797100     13.66543400      6.57696300
H           9.97994400     13.31507800      7.70214900
          26
 Energy =     -0.31975600 a.u.  #Cluster:    7
C           5.37301000     15.57361300     11.06197800
C           6.29424200     16.44266800     10.38733200
C           5.89935900     17.72682700      9.99995900
C           4.60256100     18.11134300     10.29095200
C           3.70192900     17.24988100     10.95405800
C           4.06668100     15.97425900     11.34968200
H           6.59964100     18.38639900      9.49195400
H           4.25708800     19.10472400     10.00530200
H           2.69205500     17.60806600     11.15706900
H           3.37199700     15.31528900     11.85978800
H           5.71205100     13.58133200     11.75897900
C           7.36820200     14.56321900     10.78390400
H           8.13140600     13.78939800     10.83354400
N           6.07605400     14.38717500     11.30516300
N           7.51371200     15.77250800     10.23910700
P          10.86370500     14.93790800      8.96765300
O          10.26696900     13.72077400      9.49556000
O           9.92204300     16.21780100      8.79465000
H           9.09973600     16.17155100      9.44569900
O          12.07028300     15.42443900      9.88034800
H          12.48403700     16.26398800      9.45781000
O          11.51575000     14.85715100      7.51587800
H          10.88133500     15.33355300      6.84315000
O           9.50121000     16.31185700      5.90693400
H           9.38114700     16.82647200      6.71807300
H           8.76380000     15.69782900      5.90548600
          26
 Energy =     -0.31951600 a.u.  #Cluster:    8
C           5.86780800     15.47484200     11.05801000
C           6.52820500     16.50350200     10.30702600
C           5.78559200     17.39350600      9.52402900
C           4.41136200     17.23667200      9.50733600
C           3.76904600     16.22212800     10.25030700
C           4.47894300     15.32896000     11.03408300
H           6.28467100     18.17611000      8.95468700
H           3.79850400     17.90944300      8.90654900
H           2.68188500     16.14758800     10.19891100
H           3.98150800     14.55138600     11.60483800
H           6.75273300     13.98361200     12.30886000
C           8.09884100     15.37004200     11.35063100
H           9.06148000     15.00879100     11.70601600
N           6.88370300     14.76985300     11.71416600
N           7.90794400     16.39999900     10.52169500
P          10.78566600     15.49513000      8.67152400
O          10.82411000     14.68985400      9.88293600
O           9.95363100     16.86328000      8.70756300
H           9.42123300     16.94809700      9.60326100
O          12.23773600     15.94426300      8.21354700
H          12.14616100     16.49274100      7.34611400
O          10.19349700     14.79559600      7.36700400
H           9.24489400     15.17324100      7.18680200
O           7.49709700     16.12482400      7.20470300
H           8.01764600     16.79309600      7.67140700
H           6.95611000     15.72346200      7.88801100
          26
 Energy =     -0.31207800 a.u.  #Cluster:    9
C           6.53780700     15.37528700     10.70132200
C           6.15728200     15.30317800      9.31476000
C           5.23519800     16.22967600      8.78749800
C           4.74364500     17.20228400      9.63828100
C           5.13918100     17.27592700     11.00244000
C           6.03120000     16.37433400     11.55360600
H           4.92655500     16.15850100      7.74662100
H           4.02780100     17.93623900      9.26828000
H           4.71602400     18.06722800     11.62179600
H           6.33658700     16.42269000     12.59600400
H           8.05841100     14.23746600     11.71833500
C           7.62778300     13.69671500      9.65765700
H           8.30501800     12.86101100      9.51527300
N           7.44872500     14.32327500     10.90850800
N           6.86083700     14.25131000      8.69431400
P           9.94094200     16.30429500      9.95731300
O           9.64733100     15.75442100     11.28635100
O           8.68146100     17.15052600      9.24870700
H           7.97200400     17.51410800      9.82987900
O          11.15241800     17.40339600      9.93790600
H          11.57105000     17.60535100      9.06029500
O          10.24191900     15.34393900      8.71378100
H           9.60144800     15.48312600      7.80141800
O           8.50060000     15.82679700      6.90489600
H           7.91571800     15.03136600      6.95664000
H           8.03305500     16.50757300      7.44813200
          26
 Energy =     -0.31054500 a.u.  #Cluster:   10
C           5.24649100     15.69939200     10.67136600
C           6.17147300     16.77506500     10.43948700
C           5.80331200     18.10287800     10.73045500
C           4.53466700     18.31746700     11.23951000
C           3.62673300     17.24814600     11.46563000
C           3.96043000     15.93297700     11.18936500
H           6.50567100     18.91596300     10.55430300
H           4.21092000     19.33078700     11.47800800
H           2.64113400     17.48232200     11.86909200
H           3.26699300     15.11608000     11.36252300
H           5.54817400     13.59042200     10.32248300
C           7.19895600     14.90652700      9.83489200
H           7.95410500     14.19691800      9.46241000
N           5.91919000     14.52176900     10.28015200
N           7.36910500     16.24139300      9.92110500
P          10.53798300     15.80412800      8.69418000
O           9.74492800     14.54085700      8.55892200
O           9.79863300     17.13542500      9.19799100
H           8.75485200     17.01735400      9.50743700
O          11.78639200     15.68098400      9.75177500
H          12.26750600     16.52154400      9.97214200
O          11.25072700     16.21865400      7.29434300
H          11.20430000     15.47522400      6.54119800
O          10.42024800     14.06071800      6.12406400
H          10.16808300     13.66338500      7.00718400
H           9.58900700     14.29364100      5.71000000
          26
 Energy =     -0.30923300 a.u.  #Cluster:   11
C           5.21811900     15.75163000     10.76784400
C           6.08401200     16.59048400      9.98419200
C           5.65615100     17.87033200      9.58240000
C           4.38930000     18.27259500      9.96809000
C           3.54032800     17.43641600     10.74140000
C           3.93350300     16.17375400     11.15220600
H           6.31237700     18.50630500      8.99240600
H           4.02133400     19.25660800      9.67745700
H           2.55315300     17.81049400     11.01398800
H           3.28551400     15.53479700     11.74404500
H           5.61738700     13.76771000     11.52052000
C           7.18917300     14.70760700     10.36316400
H           7.97160000     13.93107300     10.37629700
N           5.94003400     14.56067300     10.99656900
N           7.29573500     15.90663000      9.75414700
P          10.59781800     15.10255100      9.16514600
O           9.89143200     13.94121400      9.72173900
O           9.65497300     16.27138400      8.49973500
H           8.66770700     16.37935100      8.92512900
O          11.53116800     15.88746100     10.26732600
H          12.34660800     16.33481400      9.92702200
O          11.64594400     14.95975800      7.93032100
H          11.39122900     15.48445900      7.04073700
O          10.49152300     16.59617100      6.24965400
H          10.46163700     17.32284200      6.90377700
H           9.60224800     16.20291500      6.30469800
          26
 Energy =     -0.30921800 a.u.  #Cluster:   12
C           6.12696800     15.34888200     10.14785500
C           6.03825500     16.72353400     10.57185900
C           4.89781500     17.48826400     10.24837200
C           3.90426800     16.88022100      9.50579300
C           4.00722600     15.52560800      9.08089500
C           5.10351700     14.74395900      9.39170600
H           4.82275200     18.51876600     10.59093300
H           3.00813200     17.43826300      9.23598900
H           3.18798800     15.10382800      8.49825800
H           5.18468400     13.70701700      9.07693700
H           7.78257700     13.98086700     10.39722300
C           7.97173900     15.96028400     11.29570400
H           8.95383900     15.87634400     11.75720700
N           7.35324700     14.87497500     10.63628800
N           7.20898500     17.07180700     11.27316400
P          10.27967200     14.99459900      8.77256000
O           9.18778100     14.02173000      8.89795200
O          10.72577100     15.55070300     10.25610800
H          11.59789200     16.01241600     10.33837400
O          11.72926800     14.54141300      8.14977500
H          11.99280100     14.95612600      7.28217500
O          10.06165400     16.32014100      7.87632600
H           9.10292200     16.78576200      7.84236300
O           7.73989400     17.50668200      8.09961300
H           7.78840000     17.97557900      8.95082100
H           7.02195800     16.86224800      8.19575700
          26
 Energy =     -0.30885100 a.u.  #Cluster:   13
C           5.90170800     15.55748100     11.12231500
C           6.50542600     16.52468800     10.24584500
C           5.70224800     17.46001900      9.56593200
C           4.33458200     17.40063000      9.77057000
C           3.74756600     16.43902600     10.63555000
C           4.51115400     15.50977400     11.32213600
H           6.15617300     18.20235300      8.91334300
H           3.67920800     18.10727900      9.26106000
H           2.66384000     16.44297800     10.75573000
H           4.06313700     14.77638900     11.98554100
H           6.88444100     14.02112200     12.27633300
C           8.15239400     15.29894900     11.06421400
H           9.14664000     14.87793600     11.27291300
N           6.96751600     14.78912100     11.63553700
N           7.90434500     16.33192600     10.23448900
P          10.85251900     15.45912800      8.67820000
O          10.74905800     14.78846700      9.97953400
O          10.11813300     16.94916700      8.58775500
H           9.62608700     17.26226500      9.41378300
O          12.37592300     15.76271000      8.17046900
H          12.49451900     15.93063400      7.19526300
O          10.19685400     14.81375600      7.34490400
H           9.28775400     15.25801400      6.99259300
O           8.12288500     16.34479100      7.02210300
H           8.62422800     17.13181500      7.33709900
H           7.55166800     16.09960600      7.76679700
