          26
 G =       -0.322236 Gcorr = 0.126874 a.u. Nimag =   0 Frame:     1 Step:     1 Geom:     1
C           5.89228400     14.80124100      9.73004100
C           6.68386700     15.76146700     10.44514900
C           6.41502100     17.12897000     10.32758400
C           5.34913500     17.50239500      9.52778400
C           4.55822300     16.55033700      8.84880600
C           4.81604400     15.19217800      8.93030300
H           7.04738400     17.85824600     10.83565200
H           5.11143200     18.55939500      9.40618600
H           3.72467800     16.90472200      8.24124500
H           4.20925600     14.46430400      8.40303400
H           6.15190500     12.68132900      9.65045700
C           7.54480700     13.78498400     10.87222700
H           8.18153500     12.98963600     11.23486500
N           6.45193500     13.55244500     10.02195900
N           7.68676400     15.08280400     11.14932300
P          10.10893300     16.25337000      9.10070600
O           9.63649500     15.13862500      8.28412700
O          10.31665300     16.04490200     10.65994000
H           9.37343500     15.85242800     11.09724000
O          11.55650600     16.73876200      8.64931000
H          11.84635900     17.50126400      9.27916300
O           9.21018600     17.57750400      9.06913600
H           8.55296600     17.52749200      8.27468200
O           7.29260300     17.09877800      6.93056000
H           7.80696200     16.41315600      6.49005200
H           6.65463600     16.61928600      7.47048000
          26
 G =       -0.321961 Gcorr = 0.124833 a.u. Nimag =   0 Frame:     2 Step:     3 Geom:     3
C           5.97028800     14.90131400     10.74482900
C           6.76062800     16.01307700     10.29940400
C           6.55769900     17.29481300     10.84496200
C           5.57357100     17.42836500     11.80932900
C           4.79245600     16.32407000     12.24190700
C           4.97393700     15.05197800     11.72436500
H           7.16879300     18.13562800     10.51561500
H           5.38650600     18.40377800     12.25939700
H           4.03287700     16.49339600     13.00571300
H           4.37991900     14.20643700     12.05726800
H           6.08124200     12.84160200     10.09904800
C           7.45093300     14.22279600      9.16621100
H           8.01490400     13.55540300      8.46008800
N           6.42616200     13.78132900     10.01118800
N           7.66218600     15.55529500      9.30658700
P           9.38087100     16.52225300      8.45969800
O           9.59295900     15.30238200      7.64057000
O           8.26279400     17.65393700      7.96909300
H           7.35270600     17.35943400      7.74796900
O           9.74298900     16.55806800     10.07327500
H          10.47624200     17.20400900     10.30806000
O          10.60413300     17.64889300      8.18196600
H          10.46168000     18.31467300      7.48064800
O           9.19561800     12.96657800      7.23371500
H           9.01797100     13.66543400      6.57696300
H           9.97994400     13.31507800      7.70214900
          26
 G =       -0.329309 Gcorr = 0.129626 a.u. Nimag =   0 Frame:     3 Step:     4 Geom:     4
C           6.29373300     15.13620600     10.33441100
C           6.20360500     16.46472700      9.79667400
C           5.95429600     17.55138800     10.63956000
C           5.80127900     17.29171100     11.99047700
C           5.89038700     15.98311500     12.51121200
C           6.13644200     14.88870900     11.69956600
H           5.88777300     18.55672500     10.23142700
H           5.60551000     18.11265000     12.67823500
H           5.76097600     15.83942800     13.58329300
H           6.20522100     13.88325500     12.10032000
H           6.87013100     13.33109800      9.30200400
C           6.61834200     15.11262500      8.11440400
H           6.82610000     14.72039600      7.12581700
N           6.53131000     14.29286800      9.24342400
N           6.41516100     16.40519100      8.41238900
P           9.86150100     16.48003400      8.27090000
O           9.54070200     15.20799700      7.62620400
O           8.92276900     17.71952700      7.96857400
H           7.91246200     17.40519000      7.93524800
O           9.91948200     16.29531300      9.84929000
H          10.14056000     17.20191800     10.28151600
O          11.29986700     17.10326300      7.96878400
H          11.27626000     17.49989000      7.01986400
O           8.51243400     12.68389300      8.89440100
H           8.89856200     13.44091100      8.42415800
H           9.13514300     12.50198900      9.59786100
          26
 G =       -0.329306 Gcorr = 0.129629 a.u. Nimag =   0 Frame:     4 Step:     5 Geom:     5
C           6.24364800     15.21463100     10.29709600
C           6.23942500     16.57955500      9.85074200
C           6.09091100     17.62178400     10.77005900
C           5.95074900     17.28292700     12.10473400
C           5.95505400     15.93906100     12.53546600
C           6.10049000     14.88724200     11.64689500
H           6.08934400     18.65463000     10.43105900
H           5.83231900     18.06739000     12.85030400
H           5.84049300     15.73281200     13.59899200
H           6.10410700     13.85461800     11.97847600
H           6.66069600     13.44668800      9.13219600
C           6.51353300     15.31808200      8.07205700
H           6.66847100     14.97973000      7.05429800
N           6.39259100     14.43217100      9.14666000
N           6.41351900     16.59879600      8.46010800
P           9.85143900     16.43389800      8.22429800
O           9.42194700     15.23467200      7.50735700
O           9.00010500     17.75556100      8.03096200
H           7.96875800     17.51821300      8.00691600
O           9.93338300     16.13958400      9.78489100
H          10.23167400     16.99651100     10.26894200
O          11.32433500     16.97039200      7.92204900
H          11.30707700     17.43145800      7.00254400
O           8.24080600     12.71174000      8.63712500
H           8.67035800     13.46881000      8.20633600
H           8.86477500     12.43906500      9.30945000
          26
 G =       -0.309218 Gcorr = 0.119799 a.u. Nimag =   0 Frame:     5 Step:     6 Geom:     6
C           6.12696800     15.34888200     10.14785500
C           6.03825500     16.72353400     10.57185900
C           4.89781500     17.48826400     10.24837200
C           3.90426800     16.88022100      9.50579300
C           4.00722600     15.52560800      9.08089500
C           5.10351700     14.74395900      9.39170600
H           4.82275200     18.51876600     10.59093300
H           3.00813200     17.43826300      9.23598900
H           3.18798800     15.10382800      8.49825800
H           5.18468400     13.70701700      9.07693700
H           7.78257700     13.98086700     10.39722300
C           7.97173900     15.96028400     11.29570400
H           8.95383900     15.87634400     11.75720700
N           7.35324700     14.87497500     10.63628800
N           7.20898500     17.07180700     11.27316400
P          10.27967200     14.99459900      8.77256000
O           9.18778100     14.02173000      8.89795200
O          10.72577100     15.55070300     10.25610800
H          11.59789200     16.01241600     10.33837400
O          11.72926800     14.54141300      8.14977500
H          11.99280100     14.95612600      7.28217500
O          10.06165400     16.32014100      7.87632600
H           9.10292200     16.78576200      7.84236300
O           7.73989400     17.50668200      8.09961300
H           7.78840000     17.97557900      8.95082100
H           7.02195800     16.86224800      8.19575700
          26
 G =       -0.322229 Gcorr = 0.126880 a.u. Nimag =   0 Frame:     6 Step:     7 Geom:     7
C           5.93602200     15.37400000     10.35037200
C           6.93838100     16.37679200     10.57339500
C           6.83458100     17.63006100      9.96131000
C           5.72342500     17.86260100      9.16977300
C           4.72788500     16.88045900      8.97682800
C           4.81691900     15.62441200      9.55314600
H           7.62142500     18.37345400     10.09598100
H           5.60956400     18.82521700      8.67081400
H           3.86950800     17.12585300      8.35033500
H           4.05253100     14.87092600      9.39830900
H           5.90599400     13.36209300     11.07078400
C           7.58849100     14.57786700     11.65562300
H           8.16194200     13.87366900     12.24277600
N           6.36523800     14.24281600     11.05328000
N           7.93476200     15.84109600     11.39950900
P          10.17488100     15.74068200      8.86876600
O           9.45251200     14.50339400      8.58602700
O          10.57159900     16.08769300     10.36544200
H           9.68244600     16.23353700     10.91873300
O          11.59478900     15.76833800      8.14914600
H          12.06509900     16.64791600      8.40887200
O           9.45894500     17.09441200      8.40291300
H           8.69495300     16.87038900      7.74593300
O           7.21214700     16.20647500      6.77761700
H           7.56511400     15.32897400      6.59317300
H           6.60085800     16.07689700      7.51115700
          26
 G =       -0.323979 Gcorr = 0.125265 a.u. Nimag =   0 Frame:     7 Step:     8 Geom:     8
C           6.01430400     15.45363200     10.05610200
C           6.76948800     16.56373800     10.56765400
C           6.45259600     17.86869500     10.18178300
C           5.39161800     18.03880700      9.30828200
C           4.64625400     16.94479700      8.82139600
C           4.94309300     15.63985300      9.18085100
H           7.03446500     18.70792100     10.55892000
H           5.11636000     19.04234500      8.98431500
H           3.81404400     17.14042900      8.14444100
H           4.36480000     14.80115800      8.80821800
H           6.37669800     13.37158200     10.36462200
C           7.66333400     14.74185800     11.41061500
H           8.31103800     14.05352200     11.93959800
N           6.58527100     14.30911700     10.62398100
N           7.77784000     16.07467000     11.40873200
P          10.12369500     15.56417500      9.01040800
O           9.13369100     14.48775500      8.96129100
O          10.47049800     16.19938500     10.42551100
H           9.57446500     16.50131100     10.88682800
O          11.55795300     15.07823000      8.52410800
H          12.20013700     15.88507600      8.59026200
O           9.82628200     16.85404800      8.12199100
H           8.96927400     16.69656800      7.56107000
O           7.32006300     16.31600200      6.79349200
H           7.37410500     15.35493200      6.81020200
H           6.70864100     16.54042100      7.50533900
          26
 G =       -0.322193 Gcorr = 0.126917 a.u. Nimag =   0 Frame:     8 Step:     9 Geom:     9
C           5.71223800     15.71852700     10.26190400
C           6.85111800     16.54117000     10.55555500
C           6.97713400     17.80849600      9.97745400
C           5.95434000     18.23530000      9.14860400
C           4.82400900     17.43133100      8.88605500
C           4.68469300     16.16444600      9.42764000
H           7.86610600     18.41182200     10.16609700
H           6.01873800     19.21481100      8.67429800
H           4.04506800     17.82636000      8.23282100
H           3.81723300     15.54791400      9.21934200
H           5.32810000     13.72169300     10.91983500
C           7.15543600     14.63648700     11.60895900
H           7.58171000     13.83576400     12.19770800
N           5.92270200     14.51703300     10.94751800
N           7.71067900     15.83290600     11.40514500
P          10.01629500     15.43526400      8.96300100
O           9.12033200     14.33682500      8.61190600
O          10.39616600     15.67625200     10.48466900
H           9.51824400     15.95056500     11.00625900
O          11.45317800     15.25419500      8.30163400
H          12.04611500     16.03838800      8.61111400
O           9.54489800     16.89725800      8.51295500
H           8.78730500     16.81432100      7.81666800
O           7.26266000     16.41949800      6.76875500
H           7.47941100     15.50146200      6.57173200
H           6.60609900     16.37193800      7.47238200
          26
 G =       -0.309233 Gcorr = 0.121067 a.u. Nimag =   0 Frame:     9 Step:    10 Geom:    10
C           5.21811900     15.75163000     10.76784400
C           6.08401200     16.59048400      9.98419200
C           5.65615100     17.87033200      9.58240000
C           4.38930000     18.27259500      9.96809000
C           3.54032800     17.43641600     10.74140000
C           3.93350300     16.17375400     11.15220600
H           6.31237700     18.50630500      8.99240600
H           4.02133400     19.25660800      9.67745700
H           2.55315300     17.81049400     11.01398800
H           3.28551400     15.53479700     11.74404500
H           5.61738700     13.76771000     11.52052000
C           7.18917300     14.70760700     10.36316400
H           7.97160000     13.93107300     10.37629700
N           5.94003400     14.56067300     10.99656900
N           7.29573500     15.90663000      9.75414700
P          10.59781800     15.10255100      9.16514600
O           9.89143200     13.94121400      9.72173900
O           9.65497300     16.27138400      8.49973500
H           8.66770700     16.37935100      8.92512900
O          11.53116800     15.88746100     10.26732600
H          12.34660800     16.33481400      9.92702200
O          11.64594400     14.95975800      7.93032100
H          11.39122900     15.48445900      7.04073700
O          10.49152300     16.59617100      6.24965400
H          10.46163700     17.32284200      6.90377700
H           9.60224800     16.20291500      6.30469800
          26
 G =       -0.310545 Gcorr = 0.119542 a.u. Nimag =   0 Frame:    10 Step:    11 Geom:    11
C           5.24649100     15.69939200     10.67136600
C           6.17147300     16.77506500     10.43948700
C           5.80331200     18.10287800     10.73045500
C           4.53466700     18.31746700     11.23951000
C           3.62673300     17.24814600     11.46563000
C           3.96043000     15.93297700     11.18936500
H           6.50567100     18.91596300     10.55430300
H           4.21092000     19.33078700     11.47800800
H           2.64113400     17.48232200     11.86909200
H           3.26699300     15.11608000     11.36252300
H           5.54817400     13.59042200     10.32248300
C           7.19895600     14.90652700      9.83489200
H           7.95410500     14.19691800      9.46241000
N           5.91919000     14.52176900     10.28015200
N           7.36910500     16.24139300      9.92110500
P          10.53798300     15.80412800      8.69418000
O           9.74492800     14.54085700      8.55892200
O           9.79863300     17.13542500      9.19799100
H           8.75485200     17.01735400      9.50743700
O          11.78639200     15.68098400      9.75177500
H          12.26750600     16.52154400      9.97214200
O          11.25072700     16.21865400      7.29434300
H          11.20430000     15.47522400      6.54119800
O          10.42024800     14.06071800      6.12406400
H          10.16808300     13.66338500      7.00718400
H           9.58900700     14.29364100      5.71000000
          26
 G =       -0.323584 Gcorr = 0.123677 a.u. Nimag =   0 Frame:    11 Step:    12 Geom:    12
C           6.19809500     15.58564900     11.03777500
C           5.93355000     15.92582400      9.66923600
C           5.32541600     17.14215300      9.34977100
C           5.00107300     17.98971200     10.39585500
C           5.26992900     17.65007500     11.73802000
C           5.86923200     16.44957900     12.08305100
H           5.12349500     17.39831900      8.31297800
H           4.52699700     18.94709000     10.18565200
H           4.99764700     18.35857400     12.51967900
H           6.08175800     16.19341600     13.11528100
H           7.27057000     13.89265100     11.77354800
C           6.89932000     13.95041300      9.66083200
H           7.34968700     13.01681900      9.34684900
N           6.78101100     14.31069700     11.01164000
N           6.39191400     14.88427000      8.84671400
P           9.80325800     15.75380900      9.28159200
O           9.59464600     14.43733700      9.86808400
O           8.93744400     16.10748900      7.97858900
H           7.97987700     15.71454700      8.04823300
O           9.48035500     16.89044300     10.34338200
H           9.67430100     17.80776400      9.92541500
O          11.26211700     16.10668300      8.76379500
H          11.24227300     16.13292500      7.71727400
O          10.89764000     16.12771700      5.88636200
H          10.69999100     15.20174700      5.72106500
H          10.02841300     16.54432100      5.96933900
          26
 G =       -0.319756 Gcorr = 0.128068 a.u. Nimag =   1 Frame:    12 Step:    13 Geom:    13
C           5.37301000     15.57361300     11.06197800
C           6.29424200     16.44266800     10.38733200
C           5.89935900     17.72682700      9.99995900
C           4.60256100     18.11134300     10.29095200
C           3.70192900     17.24988100     10.95405800
C           4.06668100     15.97425900     11.34968200
H           6.59964100     18.38639900      9.49195400
H           4.25708800     19.10472400     10.00530200
H           2.69205500     17.60806600     11.15706900
H           3.37199700     15.31528900     11.85978800
H           5.71205100     13.58133200     11.75897900
C           7.36820200     14.56321900     10.78390400
H           8.13140600     13.78939800     10.83354400
N           6.07605400     14.38717500     11.30516300
N           7.51371200     15.77250800     10.23910700
P          10.86370500     14.93790800      8.96765300
O          10.26696900     13.72077400      9.49556000
O           9.92204300     16.21780100      8.79465000
H           9.09973600     16.17155100      9.44569900
O          12.07028300     15.42443900      9.88034800
H          12.48403700     16.26398800      9.45781000
O          11.51575000     14.85715100      7.51587800
H          10.88133500     15.33355300      6.84315000
O           9.50121000     16.31185700      5.90693400
H           9.38114700     16.82647200      6.71807300
H           8.76380000     15.69782900      5.90548600
          26
 G =       -0.323627 Gcorr = 0.123634 a.u. Nimag =   0 Frame:    13 Step:    14 Geom:    14
C           6.21882100     15.58364000     11.11677700
C           5.87019000     15.86007600      9.75272600
C           5.18035400     17.02950800      9.42424800
C           4.85981800     17.89490300     10.45682000
C           5.21138700     17.61825500     11.79431700
C           5.89275500     16.46504800     12.14823900
H           4.91486500     17.23735000      8.39097800
H           4.32345100     18.81710900     10.23920800
H           4.93779800     18.33828100     12.56491100
H           6.16859800     16.25764500     13.17642500
H           7.41821400     13.97840300     11.85336400
C           6.94336600     13.94088100      9.76101500
H           7.42957800     13.02248800      9.45573600
N           6.87021100     14.34206200     11.10344600
N           6.34596300     14.81629500      8.94302500
P           9.72047900     15.88332100      9.17409700
O           9.61492500     14.57882600      9.81265000
O           8.77298700     16.14360400      7.90637200
H           7.84384500     15.70106300      8.03728000
O           9.38733400     17.03731100     10.21375600
H           9.50869700     17.94858000      9.75688600
O          11.12999700     16.29649200      8.57121600
H          11.05714100     16.28499400      7.52683500
O          10.62295100     16.19752700      5.71680000
H          10.46914100     15.25705500      5.59177600
H           9.73714100     16.56929900      5.83110600
          26
 G =       -0.323394 Gcorr = 0.127753 a.u. Nimag =   0 Frame:    14 Step:    15 Geom:    15
C           6.37239900     15.48826900     10.53520400
C           7.03310200     16.68934700     10.96900100
C           6.51917400     17.94023400     10.61965500
C           5.37337500     17.96982500      9.84173400
C           4.73707400     16.78695700      9.41149000
C           5.22189100     15.53302000      9.74687000
H           7.00884500     18.84852900     10.96431500
H           4.93951500     18.92810200      9.55765700
H           3.83580600     16.87046900      8.80384400
H           4.73049400     14.62345500      9.41538900
H           7.06468600     13.48182700     10.75679200
C           8.19096000     15.00228800     11.76456600
H           8.94207500     14.40103800     12.26287300
N           7.10179500     14.42751600     11.08519600
N           8.16104600     16.33826600     11.72314500
P           9.77311300     14.80752000      8.66429500
O           9.27065700     13.85816600      9.65020900
O           9.75962600     16.35505200      9.09258700
H           9.69624000     16.45265200     10.11249700
O          11.27969200     14.49371300      8.28412700
H          11.56581800     15.13914400      7.53242900
O           9.02685000     14.86958000      7.26749600
H           8.43435100     15.73595500      7.23876100
O           7.48390500     17.26051400      7.39614500
H           8.09236800     17.72283200      7.98729500
H           6.71514900     17.06574800      7.94644300
          26
 G =       -0.319516 Gcorr = 0.129716 a.u. Nimag =   1 Frame:    15 Step:    16 Geom:    16
C           5.86780800     15.47484200     11.05801000
C           6.52820500     16.50350200     10.30702600
C           5.78559200     17.39350600      9.52402900
C           4.41136200     17.23667200      9.50733600
C           3.76904600     16.22212800     10.25030700
C           4.47894300     15.32896000     11.03408300
H           6.28467100     18.17611000      8.95468700
H           3.79850400     17.90944300      8.90654900
H           2.68188500     16.14758800     10.19891100
H           3.98150800     14.55138600     11.60483800
H           6.75273300     13.98361200     12.30886000
C           8.09884100     15.37004200     11.35063100
H           9.06148000     15.00879100     11.70601600
N           6.88370300     14.76985300     11.71416600
N           7.90794400     16.39999900     10.52169500
P          10.78566600     15.49513000      8.67152400
O          10.82411000     14.68985400      9.88293600
O           9.95363100     16.86328000      8.70756300
H           9.42123300     16.94809700      9.60326100
O          12.23773600     15.94426300      8.21354700
H          12.14616100     16.49274100      7.34611400
O          10.19349700     14.79559600      7.36700400
H           9.24489400     15.17324100      7.18680200
O           7.49709700     16.12482400      7.20470300
H           8.01764600     16.79309600      7.67140700
H           6.95611000     15.72346200      7.88801100
          26
 G =       -0.308851 Gcorr = 0.121747 a.u. Nimag =   0 Frame:    16 Step:    17 Geom:    17
C           5.90170800     15.55748100     11.12231500
C           6.50542600     16.52468800     10.24584500
C           5.70224800     17.46001900      9.56593200
C           4.33458200     17.40063000      9.77057000
C           3.74756600     16.43902600     10.63555000
C           4.51115400     15.50977400     11.32213600
H           6.15617300     18.20235300      8.91334300
H           3.67920800     18.10727900      9.26106000
H           2.66384000     16.44297800     10.75573000
H           4.06313700     14.77638900     11.98554100
H           6.88444100     14.02112200     12.27633300
C           8.15239400     15.29894900     11.06421400
H           9.14664000     14.87793600     11.27291300
N           6.96751600     14.78912100     11.63553700
N           7.90434500     16.33192600     10.23448900
P          10.85251900     15.45912800      8.67820000
O          10.74905800     14.78846700      9.97953400
O          10.11813300     16.94916700      8.58775500
H           9.62608700     17.26226500      9.41378300
O          12.37592300     15.76271000      8.17046900
H          12.49451900     15.93063400      7.19526300
O          10.19685400     14.81375600      7.34490400
H           9.28775400     15.25801400      6.99259300
O           8.12288500     16.34479100      7.02210300
H           8.62422800     17.13181500      7.33709900
H           7.55166800     16.09960600      7.76679700
          26
 G =       -0.312078 Gcorr = 0.122408 a.u. Nimag =   0 Frame:    17 Step:    18 Geom:    18
C           6.53780700     15.37528700     10.70132200
C           6.15728200     15.30317800      9.31476000
C           5.23519800     16.22967600      8.78749800
C           4.74364500     17.20228400      9.63828100
C           5.13918100     17.27592700     11.00244000
C           6.03120000     16.37433400     11.55360600
H           4.92655500     16.15850100      7.74662100
H           4.02780100     17.93623900      9.26828000
H           4.71602400     18.06722800     11.62179600
H           6.33658700     16.42269000     12.59600400
H           8.05841100     14.23746600     11.71833500
C           7.62778300     13.69671500      9.65765700
H           8.30501800     12.86101100      9.51527300
N           7.44872500     14.32327500     10.90850800
N           6.86083700     14.25131000      8.69431400
P           9.94094200     16.30429500      9.95731300
O           9.64733100     15.75442100     11.28635100
O           8.68146100     17.15052600      9.24870700
H           7.97200400     17.51410800      9.82987900
O          11.15241800     17.40339600      9.93790600
H          11.57105000     17.60535100      9.06029500
O          10.24191900     15.34393900      8.71378100
H           9.60144800     15.48312600      7.80141800
O           8.50060000     15.82679700      6.90489600
H           7.91571800     15.03136600      6.95664000
H           8.03305500     16.50757300      7.44813200
          26
 G =       -0.323395 Gcorr = 0.127752 a.u. Nimag =   0 Frame:    18 Step:    19 Geom:    19
C           6.71390800     15.56462800     10.94362500
C           6.83106800     16.97821600     10.70855200
C           5.85622000     17.65135100      9.96863300
C           4.79880900     16.90722700      9.47165300
C           4.69659800     15.51884900      9.69787100
C           5.64607200     14.82636100     10.43189800
H           5.93567900     18.72433100      9.80740900
H           4.01532500     17.40087500      8.89746800
H           3.84040800     14.98453300      9.28565900
H           5.56564100     13.75770400     10.60559600
H           8.15783500     14.28295500     11.85282700
C           8.56966500     16.38601600     11.91116300
H           9.49810500     16.39505400     12.46964100
N           7.80816300     15.21540200     11.74389100
N           8.00221300     17.44345900     11.32191500
P          10.10394900     15.38694800      8.94417500
O          10.02654600     14.88208400     10.30980100
O           9.46292100     16.83559500      8.68133700
H           9.36211800     17.35682400      9.55998000
O          11.60953300     15.50443600      8.46244700
H          11.61189500     15.79030100      7.47162600
O           9.40061500     14.53038100      7.81130300
H           8.50893800     15.00833100      7.53026600
O           7.02214700     15.97618200      7.20587200
H           6.39654600     15.79016200      7.91709200
H           7.38908900     16.84181500      7.42831400
          26
 G =       -0.310519 Gcorr = 0.119568 a.u. Nimag =   0 Frame:    19 Step:    20 Geom:    20
C           6.17271300     15.60215600     11.65128300
C           6.35457600     16.57405000     10.60785800
C           5.40768300     17.59946300     10.42010300
C           4.31662700     17.62550900     11.27070700
C           4.14483700     16.66070700     12.29960500
C           5.05869000     15.64155800     12.50818800
H           5.54768700     18.33465000      9.62931300
H           3.56082100     18.40314500     11.15871400
H           3.26365600     16.73544300     12.93753500
H           4.92770800     14.90480600     13.29444800
H           7.45785500     13.94371400     12.15967600
C           8.08215500     15.18965600     10.50050900
H           9.02079500     14.70398900     10.19121100
N           7.28092000     14.73223700     11.56490000
N           7.54942500     16.28301800      9.91829000
P          10.23080800     16.31565000      7.78577200
O          10.19510200     15.03597700      8.56310800
O           9.00642600     17.34271900      7.92332000
H           8.24274500     17.08318800      8.66402700
O          11.51971900     17.26397800      8.14857100
H          11.52665900     18.17545000      7.75414000
O          10.38062100     16.04568200      6.19071500
H          10.59975200     15.04146800      5.93429900
O          10.60277100     13.48867800      6.54976700
H           9.71545700     13.13750700      6.47292400
H          10.74380100     13.62562200      7.53103200
          26
 G =       -0.323713 Gcorr = 0.123547 a.u. Nimag =   0 Frame:    20 Step:    21 Geom:    21
C           6.41864800     15.63244500     11.15908700
C           5.97275400     15.97491500      9.83900000
C           5.33173800     17.19382900      9.60521300
C           5.15575800     18.04196700     10.68576000
C           5.60288500     17.70032100     11.97895900
C           6.23837300     16.49710400     12.23935600
H           4.99182400     17.45139800      8.60551400
H           4.66142500     19.00133600     10.54191200
H           5.44224200     18.40944200     12.79038700
H           6.58811900     16.23931700     13.23309500
H           7.57800900     13.93694500     11.74068400
C           6.92024600     13.99573400      9.69934100
H           7.31983900     13.06051100      9.32720200
N           6.98665100     14.35478300     11.05425900
N           6.31157500     14.93237200      8.96159700
P           9.76850800     15.78935300      8.99188300
O           9.61719300     14.47518000      9.60077800
O           8.75732300     16.14999300      7.80011300
H           7.81023600     15.77235000      7.98652500
O           9.58556600     16.92933400     10.08276400
H           9.74170600     17.84443600      9.64411600
O          11.15834000     16.12814200      8.30345400
H          11.01625100     16.14420300      7.26609700
O          10.45960800     16.12787000      5.48976100
H           9.60955000     16.55370400      5.66907400
H          10.23564300     15.20303600      5.35407800
