%nproc=24
%mem=50GB
#p M062X/6-311+G(2d,p) nosymm em=GD3 counterpoise=5

Title Card Required

0 1
C           8.04576700     10.91726900      8.64520200         1
C           7.55401200      9.92926000      9.49440200         1
C           9.16380700     11.05392200     10.59077100         1
N           9.03906000     11.59811600      9.34268200         1
H           7.76685700     11.15390000      7.62853300         1
H           6.78993300      9.18205700      9.31318300         1
H           9.87479500     11.36523400     11.35894500         1
C           9.87064200     12.66911800      8.82621000         1
H          10.94905100     12.45332000      9.01075500         1
H           9.76007400     12.75904400      7.72280900         1
H           9.61249400     13.63355200      9.29515600         1
N           8.24989200     10.03713000     10.69603600         1
C           8.07485700      9.19521100     11.88007500         1
H           6.98120400      8.97174300     11.99522300         1
H           8.39657000      9.76633400     12.78259700         1
C           8.85206700      7.87186300     11.78465600         1
H           8.55431900      7.23642700     12.64495300         1
H           8.52718200      7.29400900     10.89014000         1
C          10.36613000      8.04687300     11.76286800         1
H          10.86786700      7.09161400     12.02052200         1
H          10.70425000      8.77973800     12.51980800         1
C          10.82832700      8.45114800     10.36677900         1
O          11.40856400      9.56082600     10.25409200         1
O          10.58895400      7.68212000      9.42105000         1
O           8.00635100      6.85043400      8.55878200         2
H           8.92218000      7.03233200      8.83589800         2
H           7.83453200      7.49223300      7.85299300         2   
O          11.64800100     11.12772100     12.40137900         3
H          12.54426400     11.42343000     12.49557400         3
H          11.66059700     10.50368900     11.63250800         3
O           7.49403800      8.82130700      6.63339500         4
H           8.32963500      9.32823700      6.61600000         4
H           7.47265200      8.37853900      5.78492300         4
O           6.08282700      7.34331800     10.42743900         5
H           5.37189400      6.73541300     10.25868600         5
H           6.77908100      7.10140900      9.77677400         5 


