%nproc=24
%mem=50GB
#p M062X/6-311+G(2d,p) nosymm em=GD3 counterpoise=2

Title Card Required

0 1
O           7.11140600     10.24221600      7.38555800      1
H           7.89380500     10.78126200      7.16761100      1
H           6.85185700     10.55492500      8.26357100      1     
O           6.71101300     11.18254500     10.14418300      2
H           7.66715700     11.44222100     10.05575700      2
H           6.23457000     12.00153700     10.09009000      2




