          32
 G =       -0.509878 Gcorr = 0.166230 a.u. Nimag =   0 Frame:     1 Step:     1 Geom:     1
C           9.57639100     11.60853700     11.70791500
C          10.39341900     10.42931700     11.76367000
C          10.00384200      9.33965500     12.54813800
C           8.82065400      9.45133600     13.25748100
C           8.02762500     10.61759700     13.20466900
C           8.38776300     11.71043100     12.43464300
H          10.61952100      8.44290800     12.58369200
H           8.48524300      8.62250200     13.88016100
H           7.11034100     10.65184400     13.79251300
H           7.78222700     12.61005900     12.39290200
H           9.80283300     13.32816900     10.45385500
C          11.38346100     11.83732000     10.39514600
H          12.08134600     12.29106500      9.69984600
N          10.23394900     12.49501900     10.84826800
N          11.50647000     10.61666300     10.93570300
P          10.56688300      9.45430800      7.79668500
O           9.11496000      9.42299900      7.96032100
O          11.46490000      8.65482700      8.82628700
H          11.69090400      9.28608100      9.64917500
O          10.96925500      8.81141800      6.39930200
H          11.99654700      8.74428700      6.36234200
O          11.25446500     10.89563400      7.82920200
H          10.63198300     11.61728100      7.43350800
O           9.51044700     12.98223400      7.02571100
H           9.06991900     13.18064200      7.86569500
H           8.83267900     12.58669300      6.47557800
O           7.24305600     10.87848100      9.73702800
H           7.44136700     10.46610300     10.58587200
H           7.76882700     10.36724400      9.10017900
O           8.21825200     13.39185100      9.54510300
H           7.84912700     12.47694200      9.64630900
H           7.47136100     13.98057000      9.60311400
          32
 G =       -0.511833 Gcorr = 0.164198 a.u. Nimag =   0 Frame:     2 Step:     2 Geom:     2
C           9.54909800     11.94159200     11.40795800
C           9.94576200     10.57099800     11.57160500
C          11.25803800     10.26035800     11.94457100
C          12.13145900     11.31325200     12.14934900
C          11.73071300     12.65917900     11.98990900
C          10.44275000     12.99570800     11.61504900
H          11.56274300      9.22186800     12.05753000
H          13.16078400     11.11029700     12.44314900
H          12.46331500     13.44570800     12.16967600
H          10.12339400     14.02710100     11.47977600
H           7.66445500     12.73157900     10.76455900
C           7.83993400     10.56747100     10.94119800
H           6.85648000     10.24461600     10.62577500
N           8.20656800     11.91167800     11.02453500
N           8.85117800      9.75210200     11.27836300
P           9.41381300      8.81612700      8.09069100
O           8.60824600     10.04554700      8.06453200
O           9.10923700      7.77639300      9.24323000
H           9.07446300      8.30175500     10.16682000
O           9.16512800      7.94790000      6.78003800
H           9.73589300      7.08973400      6.86635400
O          10.99585400      8.96347400      8.12532800
H          11.27348300      9.94603700      8.31307800
O          11.80003600     11.64312400      8.70156000
H          11.77757100     11.74231600      9.65856900
H          11.05075800     12.16126800      8.37782600
O           9.37141300     12.77951100      7.69817400
H           9.41234800     12.89963500      6.74985400
H           9.05899500     11.85917400      7.81793100
O           8.03245300     14.18574900      9.75806000
H           8.53968500     13.77879700      9.03609500
H           7.47396800     14.83997200      9.34887300
          32
 G =       -0.497799 Gcorr = 0.151433 a.u. Nimag =   0 Frame:     3 Step:     3 Geom:     3
C           9.73516300     12.20752200     11.61298900
C          10.17824800     10.91081800     11.18169500
C          11.41069000     10.39354100     11.62868400
C          12.15591800     11.17644000     12.49044200
C          11.70784800     12.45622200     12.91877200
C          10.50457000     12.99060600     12.49311400
H          11.75071100      9.41696700     11.27567600
H          13.11713500     10.81457500     12.85743400
H          12.34114900     13.02416200     13.60137000
H          10.16052300     13.96814700     12.81847500
H           7.96820200     13.29185800     10.96041200
C           8.22878400     11.29529200     10.19573000
H           7.33756500     11.19706500      9.57120000
N           8.48992200     12.42033900     10.98715600
N           9.21846600     10.36902600     10.29611300
P           9.51237600      8.86509800      8.59200800
O           8.60119600      9.84970700      7.91661300
O           9.05286900      7.83877800      9.79577400
H           8.88935300      8.19593400     10.70272100
O           9.69948800      7.61040300      7.52987000
H           9.94632200      6.73562700      7.91960600
O          11.06873200      9.23943500      8.84181900
H          11.39605700     10.21542200      8.58955300
O          11.63352800     11.78935500      8.46401300
H          11.54898700     12.11629800      9.36295700
H          10.85161100     12.16602000      7.96506400
O           9.26396100     12.31408000      7.38062000
H           9.26645000     12.35039500      6.42538700
H           8.91353800     11.35565300      7.59521000
O           7.56039600     13.77815800      8.93882300
H           8.20828800     13.42484200      8.28410700
H           6.91197000     14.26222900      8.44661200
          32
 G =       -0.510250 Gcorr = 0.166017 a.u. Nimag =   0 Frame:     4 Step:     4 Geom:     4
C          10.03136400     11.98788000     11.14871300
C          10.42343700     10.71303200     11.68063400
C           9.63957500     10.08453600     12.65252000
C           8.49225000     10.73638800     13.07046400
C           8.11173600     11.98784600     12.53915200
C           8.86628700     12.63030300     11.57240800
H           9.93961200      9.12045100     13.05734600
H           7.86157300     10.28287300     13.83426500
H           7.19544000     12.45373000     12.90218700
H           8.56544500     13.58786000     11.15195100
H          10.92811200     13.07656600      9.53107600
C          11.95096200     11.29607800     10.21183600
H          12.83182400     11.30558800      9.58128700
N          11.02868100     12.34912500     10.23500000
N          11.61686900     10.31541900     11.06410900
P          10.22065700      9.06402900      8.00079400
O           8.77448900      9.25214700      8.02296300
O          10.87739700      8.19791400      9.15352300
H          11.25266900      8.82856400      9.90932800
O          10.66759300      8.29671200      6.68491500
H          11.68054900      8.11332900      6.75075800
O          11.12228600     10.38632500      8.01041000
H          10.55775400     11.23397800      7.89880700
O           9.87144000     13.02763700      8.04729700
H           8.95238100     12.96786000      8.39698100
H           9.80894300     13.53026500      7.24090000
O           6.97044700     10.41619300     10.05422000
H           7.47410400     10.27601500     10.86413700
H           7.45168900      9.91203400      9.38253000
O           7.33202700     12.92347500      9.05046200
H           7.21882400     12.05040100      9.49652900
H           6.58359300     12.98546600      8.46251400
          32
 G =       -0.510193 Gcorr = 0.166089 a.u. Nimag =   0 Frame:     5 Step:     5 Geom:     5
C          10.06912000     12.00669100     11.17359300
C          10.45672500     10.72087100     11.68197800
C           9.66609400     10.07344500     12.63567500
C           8.51645700     10.71759500     13.05932700
C           8.14025700     11.97982200     12.55108900
C           8.90162200     12.64115200     11.60249800
H           9.96292600      9.10136200     13.02327700
H           7.88070400     10.24922000     13.80981900
H           7.22212900     12.43919800     12.91774000
H           8.60421400     13.60736900     11.19971400
H          10.97742100     13.12749600      9.58509500
C          11.99578900     11.33356500     10.23746000
H          12.88213300     11.35633500      9.61469700
N          11.07326400     12.38620900     10.27499400
N          11.65465400     10.33553300     11.06633100
P          10.31179900      9.15281400      7.96078200
O           8.86329900      9.31661500      8.00964000
O          11.00907200      8.26205900      9.07035700
H          11.30628500      8.86517600      9.88124200
O          10.75217800      8.43428400      6.61535200
H          11.76903400      8.26458300      6.66346700
O          11.19127900     10.48924800      8.00090300
H          10.61407600     11.33037400      7.90833700
O           9.92081300     13.11919700      8.10087200
H           8.99945400     13.05313600      8.44311300
H           9.86477900     13.64219900      7.30712500
O           7.02422400     10.45791100     10.02218500
H           7.51245200     10.30745400     10.83955500
H           7.52208200      9.96871800      9.35198600
O           7.37381100     12.99051200      9.08051900
H           7.26167500     12.10596900      9.50341400
H           6.63019500     13.06391000      8.48788100
          32
 G =       -0.510179 Gcorr = 0.166103 a.u. Nimag =   0 Frame:     6 Step:     6 Geom:     6
C          10.09436800     11.97430200     11.18829200
C          10.50170900     10.67244500     11.63698100
C           9.73563700      9.98122100     12.57993100
C           8.59040100     10.59877400     13.05235700
C           8.19468100     11.87716100     12.60269300
C           8.93139300     12.58174200     11.66583600
H          10.04746000      8.99691200     12.92228300
H           7.97374600     10.09586300     13.79641500
H           7.28107600     12.31424600     13.00606400
H           8.61861800     13.56068500     11.30795100
H          10.96142300     13.16445600      9.62735500
C          12.00608800     11.35447600     10.18699700
H          12.87919900     11.40906600      9.54773800
N          11.07693000     12.39728200     10.28523100
N          11.68938600     10.32154300     10.98217000
P          10.29411600      9.24956200      7.86117200
O           8.84557500      9.39713200      7.94674200
O          11.02272200      8.32256400      8.91970900
H          11.33011600      8.89591100      9.74840400
O          10.71219500      8.58912400      6.47928200
H          11.73161700      8.43007100      6.49830400
O          11.16252800     10.59179200      7.93600100
H          10.57647700     11.43035900      7.88755100
O           9.87523000     13.20638800      8.16523900
H           8.96146900     13.11923600      8.52269600
H           9.79993000     13.76218000      7.39577800
O           7.03845700     10.44717000     10.03753200
H           7.54299800     10.26778300     10.83906800
H           7.52702100      9.98872700      9.33925300
O           7.35010900     13.01773500      9.18986100
H           7.25344700     12.11619200      9.57952200
H           6.59388900     13.10791000      8.61560700
          32
 G =       -0.510212 Gcorr = 0.166070 a.u. Nimag =   0 Frame:     7 Step:     7 Geom:     7
C          10.14980400     12.02745700     11.07355500
C          10.51487800     10.75056400     11.61973500
C           9.72987400     10.15965300     12.61392200
C           8.60792700     10.84982600     13.03941300
C           8.25351900     12.10276000     12.49384700
C           9.00977000     12.70850800     11.50488900
H          10.00995500      9.19448000     13.03020300
H           7.97770300     10.42632200     13.82060800
H           7.35660400     12.59986800     12.86379900
H           8.72871400     13.66736300     11.07380800
H          11.05040600     13.06539600      9.42540100
C          12.03574600     11.26886100     10.12001000
H          12.90788700     11.24513100      9.47749100
N          11.14253900     12.34692100     10.13959400
N          11.68751500     10.31080000     10.99201000
P          10.24822400      9.05440300      7.96045200
O           8.80621700      9.25845800      8.03985200
O          10.95244900      8.18611500      9.08330600
H          11.27631100      8.80901100      9.86870200
O          10.63482400      8.27677600      6.63146200
H          11.64821600      8.08383400      6.65925800
O          11.16220400     10.36791500      7.92977600
H          10.60427200     11.21981900      7.81996800
O           9.96142000     13.03408600      7.96521200
H           9.04676100     13.00303400      8.32954600
H           9.90138800     13.53584100      7.15823000
O           7.04124200     10.51898300     10.04853300
H           7.54498600     10.38434000     10.85921500
H           7.50969400      9.99301300      9.38507900
O           7.43570700     13.00545600      9.00482900
H           7.31151100     12.14067800      9.46354900
H           6.68174400     13.07434300      8.42476100
          32
 G =       -0.510021 Gcorr = 0.165078 a.u. Nimag =   0 Frame:     8 Step:     8 Geom:     8
C          10.21542600     12.00283900     11.13118900
C          10.70208000     10.73735100     11.60192900
C           9.96941200     10.00636500     12.54143600
C           8.77433900     10.54740900     12.98248000
C           8.29838600     11.78884900     12.50722300
C           9.00408200     12.53422800     11.57835000
H          10.33917200      9.04811300     12.89811000
H           8.17441400     10.00783200     13.71397800
H           7.34059500     12.15712300     12.87544800
H           8.62968900     13.48238500     11.19899800
H          11.01166400     13.22810500      9.56212700
C          12.15562500     11.48006600     10.12970500
H          13.00836800     11.56511900      9.46904900
N          11.17084700     12.47096500     10.22123600
N          11.90738100     10.44649700     10.94754100
P          10.19880100      9.36581600      8.09122200
O           8.85519500      9.66013800      8.57795600
O          11.13647400      8.42148700      8.95182000
H          11.51537100      8.96723600      9.77221700
O          10.15187300      8.61135400      6.69431700
H          11.12114500      8.37386400      6.42953300
O          11.14488700     10.63190600      7.84293300
H          10.59973500     11.50311500      7.86425300
O           9.87637200     13.25441700      8.14238600
H           8.97018300     13.08507500      8.49479800
H           9.75696600     13.82892100      7.39314900
O           6.92803000     10.40227400     10.23868700
H           7.78602800     10.21344800     10.65190500
H           6.86992900      9.75464600      9.52576500
O           7.34402100     12.87853800      9.09508200
H           7.26137900     12.00923400      9.55411000
H           6.63214500     12.87530600      8.46108000
          32
 G =       -0.484629 Gcorr = 0.153281 a.u. Nimag =   0 Frame:     9 Step:     9 Geom:     9
C           9.89160000     12.16169100     12.20336200
C          10.37286500     11.03609700     11.45086800
C          10.29276500      9.73525300     11.98654500
C           9.75042600      9.59942300     13.25157200
C           9.28750300     10.71984500     13.99403700
C           9.34685800     12.00799100     13.49104300
H          10.63580800      8.88021100     11.40544000
H           9.66434800      8.60928100     13.70027800
H           8.87025500     10.54569100     14.98657800
H           8.98689700     12.86275700     14.05488200
H           9.81578400     14.23075000     11.59357800
C          10.65564500     12.82336600     10.17495200
H          10.87138800     13.47582900      9.33186500
N          10.08724900     13.28894500     11.37828900
N          10.84528900     11.48930200     10.20157100
P           9.52385200      9.19770200      7.90913100
O           8.56555400      9.50277200      8.99512500
O          10.94342500     10.01214400      7.97117400
H          11.20799200     10.45878500      8.90077300
O           9.93432100      7.61590400      7.82640600
H          10.32143100      7.30403800      6.96341500
O           9.11262200      9.55192700      6.39089700
H           9.49468100     10.51217700      6.01114500
O          10.24127700     11.82755100      6.19490100
H           9.71221200     12.34595800      6.87348200
H          11.03834200     11.52582600      6.68292500
O           7.41707800     11.47892900      9.75432700
H           7.06476800     10.77158300      9.16662300
H           8.05572600     10.97880800     10.31132300
O           8.85845900     13.01547400      8.20236300
H           8.38915700     12.31913700      8.79897300
H           8.15443500     13.56487100      7.87217300
          32
 G =       -0.494696 Gcorr = 0.154425 a.u. Nimag =   0 Frame:    10 Step:    10 Geom:    10
C          10.08270800     12.24551700     11.60910000
C          10.23585200     10.88206700     11.18347600
C           9.79540100      9.82680300     12.00750100
C           9.22174600     10.16067200     13.22063900
C           9.07652600     11.51253000     13.63571500
C           9.49885700     12.56868100     12.84751800
H           9.89547400      8.79268100     11.67172400
H           8.86399000      9.37351500     13.88537600
H           8.61487600     11.71016900     14.60381800
H           9.38783100     13.60260000     13.16133300
H          10.50423600     14.04210500     10.47069300
C          11.04845600     12.16625800      9.56795700
H          11.49630700     12.50343300      8.63394700
N          10.62479300     13.04043900     10.57719900
N          10.83976800     10.86647500      9.90388800
P          10.42222900      9.27762700      8.30242200
O           9.21372500      9.01923600      9.13374800
O          11.97263100      8.90225500      8.70454600
H          12.38608500      9.33162800      9.49593500
O          10.43467500      8.17944000      7.06168700
H          11.31654300      7.95486000      6.67703600
O          10.41543200     10.64747000      7.39699700
H           9.54767500     11.22222000      7.45903900
O           8.16341000     12.01228400      7.95887100
H           7.83190100     11.37456400      8.73126800
H           7.51020200     11.90025400      7.26924900
O           7.22463500     10.26728600      9.60363200
H           7.36185200      9.45069500      9.05315400
H           7.92619100     10.15741300     10.28771300
O           9.12276900     14.18498100      8.70820400
H           8.32830900     13.68356600      8.95469200
H           9.31493300     13.90030100      7.81193300
          32
 G =       -0.509859 Gcorr = 0.166157 a.u. Nimag =   0 Frame:    11 Step:    11 Geom:    11
C          10.41248400     12.08638900     10.98895900
C          10.87893100     10.80948200     11.45160300
C          10.32473100     10.23040000     12.59681200
C           9.32708900     10.93206700     13.25131700
C           8.87093400     12.18490500     12.78702600
C           9.39800700     12.77892500     11.65297600
H          10.68195700      9.26515200     12.94892200
H           8.87907700     10.51810100     14.15394500
H           8.07940500     12.69125500     13.33972100
H           9.03620900     13.73751300     11.28624800
H          10.94129000     13.10857800      9.17762300
C          12.04189600     11.30819800      9.65452100
H          12.75428300     11.27442400      8.83876600
N          11.18093700     12.39300600      9.85971500
N          11.88450900     10.35718300     10.58758000
P           9.82529200      9.09085200      7.94264700
O           8.43382400      9.29856700      8.32738400
O          10.75201100      8.22575300      8.89325500
H          11.23758300      8.85142000      9.58826300
O           9.91754100      8.30637100      6.56548100
H          10.91314200      8.11033300      6.37726300
O          10.71435100     10.40122900      7.71137500
H          10.14858700     11.25477300      7.71621500
O           9.56485500     13.07512100      7.98452300
H           9.33494400     13.57159800      7.20514000
H           8.75036000     13.05465100      8.53837700
O           7.16295900     10.59231400     10.66238100
H           7.83031200     10.45750600     11.34483800
H           7.47254000     10.05947300      9.91625000
O           7.32576700     13.07198000      9.54748800
H           7.30105800     12.20947400     10.02666300
H           6.46315100     13.14301700      9.14674200
          32
 G =       -0.509847 Gcorr = 0.166260 a.u. Nimag =   0 Frame:    12 Step:    12 Geom:    12
C          10.43444400     12.17771800     11.21653300
C          11.05849300     10.89957300     11.41172600
C          10.86033900     10.19404300     12.60225900
C          10.05511400     10.77644600     13.56563100
C           9.45294600     12.03773200     13.37012200
C           9.62996500     12.75723400     12.20052800
H          11.32705700      9.22148600     12.74633300
H           9.87811900     10.25618500     14.50648500
H           8.83666900     12.45104000     14.16856300
H           9.17101000     13.72857500     12.04704600
H          10.38345000     13.37880300      9.44558100
C          11.62711600     11.59659300      9.40514100
H          12.06228900     11.66076200      8.41372700
N          10.82468000     12.60903600      9.94414200
N          11.79177300     10.57965200     10.26300000
P           9.60498900      8.85528900      8.18723100
O           8.33364700      9.20724900      8.81620500
O          10.72988300      8.17998600      9.07294100
H          11.31840200      8.94122000      9.52131500
O           9.36373300      7.78196400      7.03931000
H          10.28311900      7.46845500      6.69630800
O          10.41549600     10.05107100      7.50584400
H           9.77787000     10.75489400      7.10226800
O           8.75725300     12.17463700      6.62697800
H           7.87751100     11.81561700      6.50195400
H           8.70159300     12.70311900      7.43721000
O           7.46077500     11.51340400     10.45980000
H           7.90693600     11.31928200     11.29241800
H           7.64334300     10.73391200      9.90975400
O           8.59467600     13.56919400      9.12102700
H           8.18108200     12.83282000      9.64059400
H           8.00623900     14.31302700      9.21204800
          32
 G =       -0.509634 Gcorr = 0.166231 a.u. Nimag =   0 Frame:    13 Step:    13 Geom:    13
C          10.33885200     12.19765000     11.33213700
C          10.87203100     10.88749300     11.57782500
C          10.52846000     10.19492000     12.74264800
C           9.67195900     10.82120200     13.63134800
C           9.15943200     12.11326900     13.38704000
C           9.48089600     12.82104500     12.24132600
H          10.92648300      9.19843300     12.92448600
H           9.38219400     10.31223100     14.55013800
H           8.49640600     12.56021200     14.12785300
H           9.09101900     13.81570200     12.05065000
H          10.51448200     13.39832200      9.56885100
C          11.65715000     11.55047800      9.63372900
H          12.18296600     11.58955900      8.68590900
N          10.86563200     12.60573800     10.10199600
N          11.68771700     10.52686100     10.49885800
P           9.60741300      8.91794500      8.22655200
O           8.30115100      9.35268500      8.71706800
O          10.58961700      8.18755600      9.23015100
H          11.19225500      8.91512500      9.71446900
O           9.42180700      7.84729200      7.06590900
H          10.35132300      7.47733900      6.82045900
O          10.55473300     10.05479300      7.62536200
H          10.00448600     10.79830400      7.16759600
O           9.11957500     12.27531700      6.60437900
H           8.23814400     11.96566600      6.39035100
H           9.01312100     12.80263500      7.41035400
O           7.41589800     11.69169800     10.30615000
H           7.77837500     11.47209200     11.17231200
H           7.60075400     10.90416300      9.76858100
O           8.77709100     13.67733900      9.07564400
H           8.27825100     12.96696300      9.55491100
H           8.22034100     14.44999200      9.10497400
          32
 G =       -0.509600 Gcorr = 0.164534 a.u. Nimag =   0 Frame:    14 Step:    14 Geom:    14
C          10.83002100     11.97846200     11.20118300
C          11.14906300     10.65170300     11.64444400
C          10.54490200     10.12784600     12.79092400
C           9.64288200     10.93384600     13.46386100
C           9.33384600     12.23733800     13.02031900
C           9.91712600     12.78088300     11.88830400
H          10.78018800      9.11915400     13.12153300
H           9.14913600     10.55835800     14.35900400
H           8.61222700     12.82522900     13.58742800
H           9.66977500     13.77938600     11.53738400
H          11.41277500     12.94254900      9.37770400
C          12.29103800     11.00794000      9.79941400
H          12.94100000     10.88133800      8.94361700
N          11.58953900     12.19456100     10.04426000
N          12.05769000     10.08148200     10.74087200
P           9.50721200      9.25183200      8.54769300
O           8.42268900      9.80543300      9.35727800
O          10.46941400      8.17298700      9.18699100
H          11.10898700      8.66137200      9.87889700
O           8.92542500      8.49152200      7.27847600
H           9.71214700      8.05205600      6.77759400
O          10.54928800     10.30207000      7.94124400
H          10.20929300     11.26562000      8.03409600
O           9.92234500     13.14447700      8.35022100
H           9.66975100     13.76257700      7.67302100
H           9.12397200     13.04446300      8.93339200
O           5.95524500     11.10804000      8.48473700
H           6.05235000     11.05661100      7.53385200
H           6.53899400     10.40887900      8.81833100
O           7.76107400     12.77135300      9.89204900
H           7.06195700     12.32112300      9.37949000
H           8.05866100     12.08952400     10.51240300
          32
 G =       -0.508089 Gcorr = 0.165533 a.u. Nimag =   0 Frame:    15 Step:    15 Geom:    15
C          10.11663600     11.94833200     11.58971200
C          10.67355300     10.62926200     11.69659300
C          10.26860200      9.77487100     12.72652400
C           9.32878400     10.25320600     13.62279800
C           8.79297400     11.55459700     13.51666900
C           9.17377400     12.42071500     12.50594900
H          10.68394400      8.77157000     12.80050700
H           8.98778300      9.61562300     14.43794600
H           8.06108700     11.87925500     14.25650900
H           8.76595100     13.42284500     12.42430100
H          10.38822500     13.38564300     10.02335900
C          11.57204600     11.56702400      9.92292400
H          12.15601700     11.74189800      9.02715600
N          10.71709100     12.53230900     10.46896800
N          11.57672900     10.43821100     10.64444200
P           9.80450900      9.02701800      8.03480900
O           8.47674400      9.25899300      8.59629300
O          10.87725500      8.25148800      8.90494100
H          11.29853300      8.92327000      9.60892200
O           9.70641500      8.12977700      6.72557900
H          10.66346500      7.88247300      6.43580700
O          10.63743200     10.32722400      7.62080000
H          10.03781400     11.02743500      7.16365800
O           9.30176900     12.64111100      6.63167800
H           9.90432800     13.25819500      6.22542500
H           9.07376600     13.03193400      7.48860900
O           7.38923600     11.58345400     10.07272400
H           7.68666700     11.28619200     10.94036000
H           7.61879900     10.84217300      9.48500900
O           8.78933100     13.71482500      9.21678700
H           8.27053600     12.92253900      9.52914500
H           8.18021700     14.44655000      9.27511100
          32
 G =       -0.508164 Gcorr = 0.165458 a.u. Nimag =   0 Frame:    16 Step:    16 Geom:    16
C          10.07932700     12.00459200     11.50331500
C          10.72527600     10.73077200     11.65025100
C          10.41069000      9.90168600     12.73117900
C           9.47038700     10.36021100     13.63717400
C           8.84666800     11.61783400     13.49112700
C           9.13705900     12.45793600     12.42974100
H          10.89358400      8.93189300     12.83574200
H           9.19836600      9.74121800     14.49164000
H           8.11880700     11.92924100     14.24058200
H           8.66146100     13.42670500     12.31744900
H          10.20566000     13.38040400      9.86496200
C          11.50270100     11.63915100      9.80553300
H          12.04448400     11.80808600      8.88251700
N          10.60378700     12.57216100     10.33697300
N          11.60502800     10.54866800     10.57695900
P           9.85760500      8.89382700      8.09539100
O           8.53171600      9.07548400      8.67950500
O          10.99646200      8.23341000      8.97631100
H          11.39847400      8.96914300      9.62560700
O           9.78364400      7.92056100      6.83996000
H          10.74658600      7.72363700      6.53189000
O          10.59829300     10.21654900      7.58784200
H           9.94225200     10.85952100      7.12417700
O           9.08909300     12.40056200      6.54901500
H           9.63024300     13.03977100      6.09391200
H           8.85618800     12.81553400      7.39297300
O           7.34107000     11.38645400     10.09500500
H           7.68570900     11.15022600     10.96385200
H           7.60073600     10.63564900      9.53263600
O           8.56646700     13.56245200      9.09371100
H           8.11254500     12.75372000      9.45961500
H           7.90964600     14.25295700      9.13346200
          32
 G =       -0.510551 Gcorr = 0.165518 a.u. Nimag =   0 Frame:    17 Step:    17 Geom:    17
C           9.95133300     12.10004000     11.43258600
C          10.67742900     10.86493900     11.51799500
C          10.45333500      9.98821800     12.58454600
C           9.51965400     10.36165000     13.53447300
C           8.81295700     11.58107200     13.44607000
C           9.01350500     12.46644100     12.40175600
H          10.99894100      9.04829800     12.64358900
H           9.31793000      9.70487700     14.38006400
H           8.09279100     11.82404200     14.22744400
H           8.47131400     13.40401000     12.32801700
H           9.93615500     13.52894300      9.83926000
C          11.32731000     11.86912500      9.67265800
H          11.82016600     12.09844400      8.73222700
N          10.39615500     12.72905200     10.26566200
N          11.52218900     10.76508600     10.40703900
P           9.91621400      8.91299500      7.93206600
O           8.55062700      9.35785900      8.20185200
O          10.76670700      8.34235200      9.13973400
H          11.34723400      9.12519200      9.55586900
O           9.91408100      7.70388500      6.90083800
H          10.88969900      7.38665000      6.78627900
O          10.90981200      9.97692900      7.27252500
H          10.46804400     10.90217300      7.21111600
O           9.88852200     12.67672200      7.19078100
H           9.40499500     12.72387200      6.36699800
H           9.24647400     12.91611200      7.87639800
O           7.25761700     11.10613600     10.22143100
H           7.71057300     10.83689800     11.02900400
H           7.56694700     10.47251300      9.55388000
O           8.17476100     13.46972200      9.30333900
H           7.82181700     12.61508200      9.66455600
H           7.42472000     14.05069200      9.22996100
          32
 G =       -0.509870 Gcorr = 0.166239 a.u. Nimag =   0 Frame:    18 Step:    18 Geom:    18
C          10.08379100     12.01493400     11.41513000
C          10.67724600     10.72132500     11.60341400
C          10.27949900      9.91338900     12.67280400
C           9.31043800     10.41151800     13.52622100
C           8.73846200     11.68821500     13.33974600
C           9.11160000     12.50832200     12.28851500
H          10.72402900      8.92955400     12.81039800
H           8.97566800      9.81038100     14.37106900
H           7.98612300     12.03161000     14.04982400
H           8.67617000     13.49162300     12.14277600
H          10.33355900     13.36946600      9.77688900
C          11.58387700     11.59171000      9.79898200
H          12.18666700     11.74173000      8.90982500
N          10.68795400     12.55602800     10.27515700
N          11.60511500     10.50131800     10.57864500
P           9.84451000      8.97849900      7.99594800
O           8.47605700      9.29129500      8.40251900
O          10.78737800      8.22225100      9.01809300
H          11.28533400      8.93858300      9.62288400
O           9.82787100      8.00396400      6.73981300
H          10.79738400      7.71265500      6.54851100
O          10.76110400     10.21747000      7.57658000
H          10.20274800     10.96475000      7.13494700
O           9.27343300     12.43079500      6.61801600
H           8.43675700     12.09149000      6.29663300
H           9.06121300     12.87843600      7.45079800
O           7.30109200     11.42833200     10.08787000
H           7.60032000     11.15596700     10.96320500
H           7.58436300     10.70283900      9.50754200
O           8.62910700     13.58860500      9.15395400
H           8.13874100     12.81091000      9.52605300
H           8.02240300     14.32205400      9.19725000
          32
 G =       -0.489195 Gcorr = 0.154976 a.u. Nimag =   0 Frame:    19 Step:    19 Geom:    19
C          10.45657900     12.22924500     11.31106400
C          10.67359000     10.82773400     11.55212000
C           9.95744500     10.16616300     12.56919100
C           9.04978700     10.90970000     13.30201900
C           8.83311700     12.29185100     13.04758000
C           9.52379700     12.97043700     12.05879200
H          10.13161000      9.10883800     12.75876100
H           8.47286600     10.43427700     14.09558200
H           8.09337800     12.81890900     13.65125100
H           9.36065400     14.02607800     11.86369600
H          11.31940500     13.45133300      9.75368700
C          12.01322500     11.40291200      9.89410200
H          12.74188400     11.37435600      9.08841200
N          11.33662900     12.58188800     10.26881600
N          11.64043600     10.34507900     10.64568300
P           9.77771200      9.48799800      8.13848100
O           8.62028500     10.06939700      8.88350900
O          10.71769800      8.36783700      8.84683700
H          11.29881200      8.65379300      9.64447500
O           9.30752100      8.59557100      6.84881300
H           9.92892200      7.87016200      6.56161200
O          10.76005900     10.62283300      7.57304200
H          10.42199400     11.68558000      7.69322200
O           9.93437000     13.00246200      8.05112400
H           9.68844800     13.42099200      7.22459700
H           8.97656300     12.77581900      8.52405200
O           7.16449300     10.78920500     10.63054700
H           8.09190700     10.55057700     10.83043500
H           6.89420600     10.11455200      9.98035200
O           7.58690000     12.38531900      8.68788200
H           7.46954100     12.11407100      9.67117000
H           7.55617800     11.50504700      8.23910900
          32
 G =       -0.510195 Gcorr = 0.166086 a.u. Nimag =   0 Frame:    20 Step:    20 Geom:    20
C          10.41512800     11.99213200     11.03747600
C          10.81380200     10.68802100     11.48742000
C          10.19817300     10.10865000     12.60059700
C           9.20760800     10.83691200     13.23665600
C           8.81850600     12.11667400     12.78511100
C           9.40753100     12.71195600     11.68258900
H          10.50400500      9.12251800     12.94312000
H           8.71253500     10.42291700     14.11433300
H           8.02961800     12.64366000     13.32209400
H           9.09750600     13.69197800     11.32531700
H          11.04482900     13.02811000      9.26683700
C          12.05497200     11.17437100      9.73996100
H          12.79146800     11.12762100      8.94666100
N          11.23266400     12.28973500      9.94074200
N          11.82851000     10.21228400     10.64689300
P           9.79422300      9.08888200      7.91803300
O           8.40087500      9.35523800      8.25706600
O          10.64282900      8.16492100      8.88605100
H          11.14410600      8.75576900      9.59970700
O           9.89973300      8.32406600      6.53085400
H          10.89133500      8.08523100      6.37382200
O          10.75049300     10.35986700      7.74149300
H          10.22431800     11.23871700      7.74713400
O           9.70953200     13.07619200      8.02846700
H           9.53036900     13.59079500      7.24761200
H           8.87470000     13.08379800      8.55141100
O           7.10520900     10.64990000     10.57707400
H           7.74386100     10.47458600     11.27746400
H           7.41444700     10.11595300      9.83157400
O           7.42060000     13.13963800      9.51725600
H           7.34182000     12.26948300      9.97595400
H           6.57471100     13.25944100      9.09323500
          32
 G =       -0.505065 Gcorr = 0.163691 a.u. Nimag =   0 Frame:    21 Step:    21 Geom:    21
C          10.08137800     11.48327400     12.16156800
C          10.97874800     10.37396900     12.01149100
C          10.99923600      9.34949000     12.96164300
C          10.13017500      9.45441200     14.03432300
C           9.25246100     10.54981200     14.17592500
C           9.21150900     11.57828600     13.24917300
H          11.67673700      8.50688200     12.84471800
H          10.11560900      8.67432600     14.79415700
H           8.59087100     10.57904100     15.04128600
H           8.53879800     12.42083500     13.36053400
H           9.68046900     13.05030900     10.75456800
C          11.30764100     11.70329900     10.29165400
H          11.68095600     12.13162000      9.36786400
N          10.32277100     12.32801800     11.06956500
N          11.71739700     10.54866600     10.83202000
P           9.56961100      9.50578200      8.21669000
O           8.41775000     10.08481500      8.90910700
O          10.55516400      8.57400400      9.03335900
H          11.19870300      9.18293600      9.61478200
O           9.07896700      8.55888200      7.03476700
H           9.86521300      7.95432100      6.75850800
O          10.57440800     10.57246200      7.59252900
H          10.10921700     11.11319300      6.83687900
O           9.28668600     12.14922200      5.63595400
H           8.54851600     11.66318000      5.26726400
H           8.87508200     12.86199900      6.15589300
O           8.14099500     12.84159000      9.78705400
H           7.28727800     12.83435100     10.22276700
H           8.26947000     11.91090000      9.49097800
O           8.08120500     14.09268000      7.26186300
H           8.59159900     14.89116900      7.37163500
H           8.06539400     13.67629300      8.13949400
