%nproc=24
%mem=50GB
#p M062X/6-311+G(2d,p) nosymm em=GD3 counterpoise=2

Title Card Required

0 1
C           9.97746500     11.74953700      8.16678300       1
C          11.11728200     11.49661000      7.38953400       1
C          11.54792200     10.19652000      7.19231400       1
C          10.80484800      9.13618000      7.73780400       1
C           9.67254700      9.42430400      8.49585900       1
H          12.46428600      9.98929600      6.63700900       1
H           9.63752000     12.78852200      8.34040300       1
H          11.67347400     12.35409500      6.99126700       1
H           9.08358000      8.62203400      8.96622000       1
C          11.24837700      7.73126100      7.56413500       1
H          11.47008500      7.48183500      6.51878900       1
H          12.17480700      7.55428500      8.15102200       1
H          10.52301000      6.99471500      7.94005400       1
N           9.28982500     10.72053300      8.72134100       1
C           8.11426100     10.94757000      9.59681700       1
H           7.20705900     10.93477500      8.94952300       1
H           8.02991600     10.07773100     10.30417800       1
C           8.14592100     12.24375200     10.42776000       1
H           8.46901800     13.11558100      9.81923100       1
H           7.09430700     12.48478800     10.70389800       1
C           8.97326000     12.12471200     11.70014500       1
H           8.97391000     11.08725500     12.08990300       1
H           8.52368100     12.72813400     12.51108100       1
S          10.68642700     12.67827800     11.50571500       1
O          11.40082600     12.10488500     12.65968200       1
O          10.62574400     14.13483800     11.36553800       1
O          11.14406600     12.06371300     10.19198000       1
P          11.49362400      8.85880000     11.38521200       2
O          10.03452900      8.80242000     11.23885600       2
O          12.10730400      7.38529500     11.30775900       2
H          13.10932300      7.45866100     11.54004600       2
O          12.25034000      9.59568800     10.19866600       2
H          11.90272500     10.60572000     10.14787300       2
O          12.07916000      9.41753800     12.74142800       2
H          11.86867100     10.46333200     12.79807300			 2


