%nprocshared=24
%mem=50GB
#p opt freq b3lyp/6-311+g(2d,p) em=gd3bj

Title Card Required

0 1
 C                  0.25743100    0.68758600    0.00002800
 C                  0.26386600   -0.72369100    0.00000700
 C                 -0.94333500   -1.42422100   -0.00005500
 C                 -2.11982300   -0.69188800   -0.00009200
 C                 -2.10807400    0.71420400   -0.00007200
 C                 -0.91951700    1.42993900    0.00000000
 H                 -0.94503000   -2.50694400    0.00000400
 H                 -3.07145500   -1.20918300   -0.00010200
 H                 -3.04895400    1.25093500   -0.00010400
 H                 -0.91473300    2.51325400   -0.00000800
 H                  1.97060200    1.97504500    0.00005300
 C                  2.31511400   -0.12817700   -0.00011700
 H                  3.39512600   -0.12152300   -0.00014600
 N                  1.59362200    1.04209400   -0.00000700
 N                  1.56930200   -1.19696300    0.00030900

