%nprocshared=24
%mem=50GB
#p M052X/6-31G*

Title Card Required

0 1
 C                 -0.25676200    0.68759400   -0.00000900
 C                 -0.26276500   -0.72423800   -0.00002700
 C                  0.94412600   -1.42401800    0.00000900
 C                  2.12026000   -0.69131700    0.00006500
 C                  2.10859400    0.71403900    0.00008500
 C                  0.92010300    1.42941200    0.00004100
 H                  0.94791500   -2.50637300   -0.00004600
 H                  3.07171400   -1.20826400    0.00006800
 H                  3.04917400    1.25055100    0.00011300
 H                  0.91655400    2.51247100    0.00004500
 H                 -1.97114700    1.97469300   -0.00017600
 C                 -2.31771900   -0.12795100    0.00013500
 H                 -3.39744700   -0.12186700    0.00016700
 N                 -1.59429000    1.04183700   -0.00006800
 N                 -1.57025000   -1.19645600   -0.00021400

