%nproc=24
%mem=50GB
#p M062X/6-311+G(2d,p) nosymm em=GD3 counterpoise=2

Title Card Required

0 1
P          12.55057500     12.00869300     10.84135300       1
O          11.66590800     10.93159700     11.30819800       1
O          13.17593900     11.78737900      9.40213600       1
H          12.38923400     11.74924400      8.68703300       1
O          11.97376900     13.47475500     10.90589300       1
H          11.23777200     13.59588200     10.13121300       1
O          13.83690000     12.07892500     11.78392000       1
H          14.42483700     12.85360000     11.43723000       1
O          11.25749700      9.02600700      7.26177000       2
H          12.03825400      8.86542700      6.74502300       2
H          11.22583700     10.01408000      7.34464600       2

