%nproc=24
%mem=50GB
#p M062X/6-311+G(2d,p) nosymm em=GD3 counterpoise=3

Title Card Required

0 1
O           2.23219300      6.06880000      9.23754000       1
H           1.56065200      5.47822400      8.90976500       1
H           2.99594900      5.93646700      8.64472100       1
O           4.49285400      5.74127200      7.60717000       2
H           5.33395100      5.90865800      8.09542400       2
H           4.69451700      5.01776300      7.02330100       2
O           6.79480300      6.12839600      8.99125900       3
H           6.85709400      5.91278800      9.92633600       3
H           7.38696000      6.91812500      8.90838600       3

