          29
 G =       -0.670365 Gcorr = 0.135146 a.u. Nimag =   0 Frame:     1 Step:     1 Geom:     1
C          16.43631000     11.36960600     12.31599700
C          16.02209000     10.25865600     13.05530800
C          14.68699300     10.40018900     11.31172000
N          15.57821300     11.45625700     11.22391000
H          15.68096300     12.08195500     10.42362800
H          17.23380600     12.06143800     12.48059100
H          16.41401200      9.86018400     13.96880700
H          13.90624300     10.20783700     10.59106900
N          14.93995600      9.66927100     12.42046600
P          16.19041800     10.89831700      7.78558100
O          15.43580200     11.86051300      8.61157000
O          17.63930300     11.48448900      7.49371300
H          18.20815300     10.73896900      7.06566500
O          16.50301200      9.49068200      8.42924400
H          15.59584700      9.04420100      8.73335000
O          15.55064100     10.52022800      6.39063100
H          15.15842000     11.38265100      5.94062600
O          14.44612100     12.84911000      5.21388400
H          15.10786800     13.53523400      5.13358500
H          13.88378700     13.13891500      5.95983600
O          14.18556400      8.15635300      9.26500400
H          14.16898300      7.82612800     10.19338600
H          14.06449500      7.38061900      8.72499300
O          13.99131900      7.23491000     11.81839200
H          14.59211700      7.88048200     12.28163400
H          13.12485100      7.48229300     12.13646500
O          13.16584300     13.45151500      7.58852500
H          13.92043500     13.04767500      8.04700500
H          12.44845700     12.83133800      7.72542100
          29
 G =       -0.671068 Gcorr = 0.141868 a.u. Nimag =   0 Frame:     2 Step:     2 Geom:     2
C          16.47105700      9.43348100     12.22428200
C          15.19399100      9.42608100     12.78684500
C          15.28586400     11.16574500     11.43995000
N          16.52310100     10.54288900     11.38252100
H          17.25970800     10.74767200     10.71077700
H          17.29501100      8.76469400     12.35016300
H          14.76110500      8.74642800     13.49216200
H          15.02796100     12.05810000     10.88761600
N          14.47159700     10.50202200     12.28980900
P          16.49781100     11.60658100      7.78527500
O          15.42783400     12.49256600      8.23026000
O          17.86314400     12.36691000      7.52739300
H          18.55098400     11.66087200      7.20331300
O          16.92803500     10.51777500      8.87850100
H          16.17608100      9.80512900      9.00137200
O          16.28612100     10.78207500      6.44455400
H          15.34490400     10.34432500      6.45534300
O          13.65275200      9.54837600      6.65931900
H          13.11776700      9.30887500      5.91125000
H          13.14609400     10.25014200      7.13881400
O          14.76656600      8.74505200      9.21025900
H          14.06961300      9.12031000      9.77057700
H          14.37980200      8.76252300      8.32429900
O          12.48725800      9.93795900     10.57030100
H          12.89036700     10.27684800     11.41388900
H          11.75916300      9.38807100     10.83290400
O          12.50980000     11.45502900      8.16086700
H          13.29902700     12.00680900      8.23858600
H          12.43750100     11.00667000      9.01881300
          29
 G =       -0.670962 Gcorr = 0.141490 a.u. Nimag =   0 Frame:     3 Step:     3 Geom:     3
C          15.37948500     12.21633800     11.37848400
C          15.75155400     10.96385100     11.86387200
C          13.66920300     10.77789800     11.16647200
N          14.05364000     12.09601000     10.95518300
H          13.55035000     12.79652600     10.42353000
H          15.93709300     13.12351500     11.27751600
H          16.69086700     10.63720900     12.26194400
H          12.69302800     10.38519900     10.92417500
N          14.68182300     10.08776200     11.72822000
P          16.84261900     10.55713200      8.22949400
O          16.31080100     11.59822500      9.11284900
O          18.13848900     11.07358500      7.46705600
H          18.48207300     10.29628500      6.87594400
O          17.36953300      9.22911500      8.92570700
H          16.61217500      8.79249900      9.48397400
O          15.89679700     10.10904800      7.03734800
H          15.09889700      9.52887700      7.39542600
O          12.16962600     10.89193700      8.77683100
H          11.51969700     10.97157800      8.08233700
H          12.78341000     11.63447300      8.64581900
O          13.78514900      8.65409000      8.09239500
H          14.18832600      8.27603100      8.88858400
H          13.19731200      9.35407700      8.40672700
O          15.26617800      7.82275000     10.37063700
H          15.02875200      8.42964200     11.12396800
H          15.41700500      6.96830900     10.75209600
O          13.94606600     13.05479300      8.61258600
H          14.79847900     12.56330700      8.70839000
H          14.07158900     13.62994500      7.86245400
          29
 G =       -0.668532 Gcorr = 0.138445 a.u. Nimag =   0 Frame:     4 Step:     4 Geom:     4
C          15.92886500     11.27708800     12.34632200
C          15.20704800     10.15677300     12.76878900
C          14.38562800     10.74043400     10.81692900
N          15.39343800     11.64552700     11.11712400
H          15.77437700     12.33878200     10.47728800
H          16.73589400     11.80393600     12.80777000
H          15.29978000      9.58339700     13.66876900
H          13.79877900     10.77222400      9.91519400
N          14.26040000      9.83228800     11.80893900
P          16.67674400     11.16777600      7.82758900
O          15.85844300     12.09459200      8.62688900
O          17.76036600     11.96585200      6.99077300
H          18.34367200     11.26061300      6.49913300
O          17.53531200     10.12819100      8.65198000
H          16.90368000      9.45342300      9.15441600
O          15.88687500     10.35797800      6.71228300
H          15.10534300      9.83563300      7.14865300
O          11.64901600     10.49531600      8.63011100
H          11.36197900     10.46627700      9.54259300
H          12.04438200     11.38106200      8.51094200
O          13.73124300      8.86793400      7.96416200
H          13.33857700      8.15052400      7.47329000
H          12.98275600      9.45453700      8.20572300
O          15.79400700      8.26158700      9.86003700
H          15.02412900      8.34212800      9.28257300
H          15.44835100      8.44011700     10.74929600
O          13.04407300     12.85907400      8.37685600
H          13.98803400     12.65323000      8.45824000
H          12.96882800     13.29372200      7.52735300
          29
 G =       -0.672265 Gcorr = 0.139721 a.u. Nimag =   0 Frame:     5 Step:     5 Geom:     5
C          14.31749300     11.57552500     11.26770400
C          15.43389000     10.91013300     11.77631000
C          14.16838900      9.38129300     10.82210100
N          13.51427600     10.59750000     10.67966800
H          12.65925300     10.77731300     10.16758000
H          14.05895700     12.61271900     11.26276400
H          16.29378900     11.30483700     12.27943200
H          13.79489300      8.45026400     10.43100800
N          15.32323500      9.55417100     11.49785300
P          16.70272900     10.79607900      8.33539400
O          15.94311600     11.63054400      9.26982200
O          17.06552400     11.61306100      7.01668600
H          17.68834900     11.03665400      6.43567200
O          18.09727100     10.23772000      8.81790100
H          17.91153900      9.50283100      9.57446500
O          15.99237800      9.47152700      7.80105500
H          14.98390600      9.47975900      8.00090900
O          11.98476600     11.76061600      8.79908800
H          11.15988900     12.23261200      8.82022200
H          12.69280400     12.44947300      8.72271200
O          13.13236400      9.24377100      8.10530700
H          12.80924000      8.96044000      7.25214300
H          12.73188600     10.11045300      8.25582500
O          17.58870000      8.27824900     10.71176300
H          17.04033000      7.66599300     10.21984300
H          16.94037800      8.70848600     11.33588500
O          13.95505000     13.56724600      8.71076500
H          14.68015000     12.97211500      9.00194400
H          14.24548300     13.86862400      7.84819400
          29
 G =       -0.669857 Gcorr = 0.141224 a.u. Nimag =   0 Frame:     6 Step:     7 Geom:     7
C          15.55546700     11.46396700     11.77569300
C          16.00630100     10.14471700     11.80303000
C          13.92164400     10.08323300     11.09614500
N          14.22806100     11.41648700     11.34662100
H          13.66580100     12.22472300     11.11127700
H          16.06148200     12.38263300     11.98271100
H          16.97140200      9.75698400     12.06106200
H          12.96414500      9.74071900     10.74100200
N          14.98432400      9.30541600     11.37955900
P          16.72099800     10.96281300      8.16482700
O          16.29371100     11.76996900      9.31165100
O          17.79250600     11.75969100      7.30046100
H          18.12443400     11.12530100      6.55335300
O          17.44685700      9.59586600      8.46258500
H          16.76268800      8.88541400      8.86815600
O          15.58669400     10.67043700      7.07861000
H          14.85238900     10.07070900      7.47372900
O          11.96161200     11.27623000      8.99588300
H          11.27455300     11.69098400      8.48289200
H          12.63503300     11.96692500      9.13573900
O          13.40544900      9.06478600      8.11391600
H          12.85011600      8.62005300      7.47961500
H          12.87643300      9.80412400      8.46037100
O          15.68526200      7.71204600      9.37170800
H          14.86093000      8.04109700      8.99596000
H          15.57470200      7.89513800     10.34052400
O          13.89542900     13.18522800      9.53339900
H          14.74949900     12.70828700      9.37224800
H          14.00210300     14.03603800      9.11728200
          29
 G =       -0.665556 Gcorr = 0.138383 a.u. Nimag =   0 Frame:     7 Step:    11 Geom:    11
C          16.79682200     11.40745200     12.31966800
C          15.60668400     12.08520800     12.57950700
C          15.04975100     10.16264600     11.66278400
N          16.43653600     10.18150300     11.75952600
H          17.07433300      9.54612500     11.30317700
H          17.81508700     11.69251800     12.47291100
H          15.44689400     13.04908700     13.01863400
H          14.48416500      9.34591500     11.24292800
N          14.53551900     11.30375000     12.16382600
P          16.42296300     10.25471500      8.38349400
O          16.02467700     11.59807500      8.77625400
O          17.48971800      9.64311300      9.41408100
H          17.92725100      8.82095300      8.98012800
O          15.29899300      9.12688600      8.47140000
H          14.49799600      9.38198700      7.86826000
O          17.15238600     10.04362100      6.99254200
H          16.49896900     10.32788400      6.22528200
O          11.61265200     11.27652100      8.49235600
H          11.14460300     12.03028300      8.14551300
H          12.23366200     11.67109300      9.16416500
O          15.17449100     10.80985400      5.07033700
H          15.07608000     11.76142500      5.12635100
H          14.39137300     10.45703700      5.52310400
O          13.08887200      9.84177900      6.77898300
H          12.56142700     10.41497500      7.39186000
H          12.53187000      9.08812400      6.60747300
O          13.29674100     12.52740300     10.12844300
H          14.18119700     12.33956700      9.79824600
H          13.31830600     12.19050900     11.05878300
          29
 G =       -0.669293 Gcorr = 0.139874 a.u. Nimag =   0 Frame:     8 Step:    13 Geom:    13
C          16.87791500     12.03753700     11.58121500
C          16.25229300     13.24832200     11.27971600
C          14.72322500     11.67970200     11.08404100
N          15.89829300     11.05311100     11.47746500
H          16.07314100     10.05410200     11.42573100
H          17.89164800     11.81613900     11.83813300
H          16.65269300     14.24140500     11.26850500
H          13.79440400     11.16054300     10.91275600
N          14.92051000     13.01053500     10.96665800
P          16.36371400      9.51662300      8.40576400
O          15.73945500      9.25500300      9.71346600
O          17.75512800      8.76063800      8.32360500
H          18.15469300      8.95151300      7.38551600
O          15.55716600      8.95969400      7.16302400
H          14.88474700      9.68272700      6.81126000
O          16.74629300     11.02227300      8.09601600
H          15.93042700     11.65605800      8.26791000
O          12.24874600     11.08843000      8.81188400
H          11.39504900     11.36416800      9.12759900
H          12.44671400     10.23921100      9.25750200
O          14.53790200     12.76233700      8.32362000
H          14.71434900     13.36637900      9.07993000
H          13.74972500     12.27711900      8.60176900
O          13.72067200     10.91509500      6.32459400
H          14.16374500     11.77409500      6.36784300
H          13.09127400     10.94729300      7.06071700
O          12.93108300      8.76418200     10.04928900
H          13.90050900      8.86040200     10.00622200
H          12.75451000      7.98537700      9.51826300
          29
 G =       -0.669939 Gcorr = 0.138369 a.u. Nimag =   0 Frame:     9 Step:    14 Geom:    14
C          16.70032600     10.48804700     12.17473900
C          15.62045400      9.86754400     12.80825800
C          14.82197900     10.86511000     11.01686300
N          16.18311200     11.12279900     11.04962400
H          16.72297000     11.58666500     10.31968100
H          17.73711500     10.51962600     12.43099100
H          15.59668000      9.29071200     13.70993800
H          14.15246700     11.22951600     10.25285600
N          14.46726400     10.10948000     12.07894500
P          16.47733400     10.86349200      7.46071400
O          16.45903800     11.88286400      8.52497900
O          17.81163600     10.96327900      6.61463500
H          17.79532700     10.18042600      5.93088700
O          16.45232000      9.36488700      7.95917500
H          15.49429600      9.13502800      8.33221000
O          15.33322600     11.01479400      6.36476800
H          14.42332100     11.13775900      6.83685500
O          12.70916300      8.27713900     11.28759800
H          12.96525100      9.08910500     11.79741800
H          13.28613100      7.60369600     11.64070900
O          12.79299500     11.46368100      7.93932000
H          13.15862100     12.26038000      8.36798200
H          11.87222300     11.64758500      7.78315000
O          13.80544500      8.88469800      8.81256000
H          13.30325800      9.65583400      8.54433600
H          13.43911200      8.62681300      9.67957600
O          14.15342100     13.60192600      9.01994100
H          14.99805900     13.12932500      8.93185400
H          14.25747300     14.37780400      8.46945200
          29
 G =       -0.673667 Gcorr = 0.140888 a.u. Nimag =   0 Frame:    10 Step:    15 Geom:    15
C          16.73816400     11.61311300     12.12341700
C          15.74615200     11.02578200     12.91294100
C          15.87911000      9.83731800     11.06392600
N          16.81924900     10.84933900     10.96261500
H          17.35963800     11.07540900     10.12707600
H          17.35254100     12.47058800     12.29659700
H          15.38697700     11.30832900     13.88185800
H          15.70698600      9.08296700     10.30946800
N          15.22471700      9.93037700     12.24386600
P          16.34834900     10.65945700      7.26713300
O          16.42529500     11.35884300      8.55656100
O          17.74235300     10.68167300      6.51281300
H          17.62289800     10.14661900      5.63209400
O          16.02355100      9.10928100      7.37592700
H          15.07447700      8.97919500      7.78827900
O          15.33829300     11.25675900      6.19954300
H          14.42992100     11.45475800      6.66759800
O          12.79274600      9.61291400     11.26375200
H          13.49655000      9.44970900     11.94772400
H          11.96162000      9.57008300     11.71877100
O          12.81556300     11.64417600      7.59756900
H          13.10143000     11.88478000      8.51248000
H          12.18903100     12.31228100      7.34228000
O          13.40058800      8.93282400      8.53026600
H          13.00481600      9.71244700      8.12229100
H          13.21653000      9.04532700      9.47229900
O          13.73247800     12.05298600     10.09023900
H          14.66628200     11.91672200      9.88885200
H          13.45371900     11.25595900     10.57177600
          29
 G =       -0.669931 Gcorr = 0.138375 a.u. Nimag =   0 Frame:    11 Step:    16 Geom:    16
C          16.86946500     10.84171200     12.06022300
C          15.84021500     10.30773500     12.83991000
C          14.91857000     11.03877900     10.98028300
N          16.27481000     11.30888700     10.89207900
H          16.76186700     11.67030800     10.07247400
H          17.91927200     10.91683300     12.24438700
H          15.88031200      9.86243800     13.81274900
H          14.19815100     11.28776400     10.21623800
N          14.64120200     10.43650400     12.15719200
P          16.35896200     10.54936000      7.36374400
O          16.38479100     11.70856100      8.27365300
O          17.64063700     10.54072500      6.43452200
H          17.59803900      9.66978000      5.86869200
O          16.38808100      9.13596900      8.06810600
H          15.45912500      8.95568600      8.53126800
O          15.15155900     10.53373500      6.32710000
H          14.26826000     10.71492200      6.83000500
O          12.84752000      8.51397400     11.73916900
H          13.13526800      9.38586100     12.11595600
H          13.43908200      7.88857500     12.15142100
O          12.70043900     11.17753400      7.97142700
H          13.07512200     12.02953300      8.26447500
H          11.76900300     11.32824300      7.84633600
O          13.80599200      8.76168400      9.14704100
H          13.27623200      9.48058000      8.79832400
H          13.49391200      8.63275800     10.06284000
O          14.08323900     13.45704300      8.66691100
H          14.92903800     12.98383800      8.59322400
H          14.14185400     14.15069600      8.01025900
          29
 G =       -0.670459 Gcorr = 0.141602 a.u. Nimag =   0 Frame:    12 Step:    17 Geom:    17
C          16.98342400     10.25613600     11.24573400
C          16.07983400      9.88835600     12.24480200
C          15.50448200     11.90429200     11.57449100
N          16.62440800     11.53856600     10.84315000
H          16.97567200     12.01160200     10.00725700
H          17.79629300      9.71802100     10.79948300
H          16.02391000      8.98523900     12.81759100
H          14.99989000     12.85121800     11.47899300
N          15.16971200     10.91757200     12.43551600
P          16.37714600     10.67766300      7.46409800
O          16.13154700     11.81588200      8.36264200
O          17.77894600     10.81807300      6.73605900
H          17.89374600      9.98366000      6.12987500
O          16.49525300      9.27303000      8.19210500
H          15.58716800      9.03952300      8.65493100
O          15.35980600     10.48537200      6.26258700
H          14.38624800     10.55275100      6.62181900
O          12.77179900     10.27643900     11.47220200
H          13.43572200     10.41914700     12.19748700
H          11.92440800     10.20713800     11.89379300
O          12.67773700     10.59932100      7.37497900
H          12.78299100     11.26243500      8.09854400
H          11.94381300     10.90297100      6.85205300
O          13.90923500      8.74376600      9.29457100
H          13.35188800      9.13906300      8.61369400
H          13.61784300      9.17558200     10.10919200
O          13.25639900     12.20465900      9.45612200
H          14.19942900     12.17914900      9.25502300
H          13.12126700     11.58339200     10.19121600
          29
 G =       -0.671108 Gcorr = 0.141627 a.u. Nimag =   0 Frame:    13 Step:    18 Geom:    18
C          16.49179300     12.25184000     11.05103800
C          16.65920800     10.95348000     11.52979000
C          14.49695500     11.37540400     11.58998600
N          15.12153900     12.51855100     11.10801300
H          14.67354500     13.32484200     10.68818300
H          17.20072100     12.95465000     10.66651200
H          17.55384400     10.37240200     11.62877700
H          13.43294700     11.28222800     11.73898200
N          15.41689800     10.42769400     11.86155600
P          16.33752800     10.17801900      7.81129400
O          16.43830600     11.32891600      8.71272200
O          17.40312800     10.28641100      6.63666900
H          17.30299100      9.44152600      6.04697700
O          16.66545100      8.75325400      8.43504400
H          16.04951200      8.57078600      9.24988200
O          14.96844400     10.03001100      7.02385300
H          14.20530400      9.70845200      7.66957400
O          14.86448800      8.08203900     10.61730700
H          14.90046800      7.22623800     11.02353800
H          15.07124400      8.74191000     11.33364700
O          12.36463100     11.92000800      9.66062100
H          13.10530000     12.44024800      9.30732400
H          11.60186200     12.18459600      9.15159200
O          12.99951400      9.28001900      8.82557300
H          12.75689700     10.13431600      9.20813600
H          13.51399800      8.82406700      9.50818600
O          14.56554900     13.44135700      8.82168200
H          15.22243200     12.71199600      8.70386300
H          14.61552600     13.95475300      8.01969000
          29
 G =       -0.669949 Gcorr = 0.138359 a.u. Nimag =   0 Frame:    14 Step:    20 Geom:    20
C          17.33541300     10.87767800     11.79530000
C          16.44630100     10.35037400     12.73546800
C          15.23217600     11.10984500     11.06489100
N          16.55735100     11.36288700     10.74862900
H          16.90275900     11.72518900      9.86051000
H          18.40220000     10.93728100     11.79849400
H          16.64519300      9.89614900     13.68439300
H          14.39587800     11.37486300     10.43629900
N          15.15053500     10.50079500     12.26789300
P          16.02215200     10.64091000      7.25096500
O          16.22587700     11.78856500      8.15283700
O          17.12223500     10.62270000      6.11266600
H          16.96728100      9.75828600      5.55636600
O          16.14863200      9.21901500      7.92723300
H          15.30775000      9.04452800      8.53736100
O          14.65276400     10.65708500      6.44018600
H          13.87363300     10.84539600      7.09099200
O          13.30245100      8.59250400     12.14273400
H          13.96267900      7.96802400     12.43470700
H          13.64798200      9.46241700     12.47215900
O          12.53524200     11.32156000      8.49032100
H          12.97076400     12.16416200      8.71995600
H          11.59917500     11.49055600      8.52594100
O          13.78149100      8.86902100      9.42438200
H          13.21292500      9.60266000      9.18480700
H          13.63154300      8.72713300     10.37830600
O          14.05658200     13.57199900      8.95005200
H          14.86955800     13.08792000      8.72867500
H          14.01149900     14.27051200      8.29748800
          29
 G =       -0.670723 Gcorr = 0.141248 a.u. Nimag =   0 Frame:    15 Step:    21 Geom:    21
C          16.75958000     11.65731600     10.92031300
C          16.71649600     10.35697200     11.42554000
C          14.69832000     11.20413100     11.68209600
N          15.48474000     12.19167900     11.10182200
H          15.17029400     13.08385200     10.73626200
H          17.54932400     12.19827000     10.44083800
H          17.48973000      9.61903800     11.47777700
H          13.65579500     11.32743700     11.92962300
N          15.43254500     10.09336500     11.89380900
P          15.94240100     10.44346100      7.46950200
O          15.80763200     11.88124100      7.21748400
O          17.18581700      9.87097000      6.65903000
H          17.08072400      8.84879200      6.58278300
O          16.23520200     10.17420400      9.00693000
H          15.74822600      9.33704900      9.36233600
O          14.77182900      9.48272000      6.99644800
H          13.92329100      9.59254500      7.60371300
O          14.58810500      8.06530400     10.38112300
H          14.62713500      7.13497700     10.55669000
H          14.77804400      8.52454600     11.24042900
O          12.47906400     12.16094900      9.96161900
H          13.21511800     12.68776500      9.61662700
H          11.69501100     12.52651000      9.55646500
O          12.71294000      9.54342600      8.84384700
H          12.63373300     10.40450900      9.27623300
H          13.22169900      8.99333000      9.45836900
O          14.70674400     13.69221900      9.09201900
H          15.12269600     13.04021300      8.48091600
H          14.77778400     14.53322300      8.64936500
