%nproc=6
%mem=5GB
#p M062X/6-311+G(2d,p) nosymm em=GD3 counterpoise=3

Title Card Required

0 1
C          10.42000700      7.42752600      9.44900700         1
C           9.99890000      8.13549000      8.32773300         1
C          11.27753100      9.50146100      9.58143400         1
N          11.21486600      8.28744900     10.20434100         1
H          10.17252200      6.43012900      9.77018200         1
H           9.36791500      7.82961400      7.51612200         1
H          11.81505000     10.39525800      9.93726200         1
C          11.75074600      7.99992200     11.52338300         1
H          12.78060500      8.40056100     11.63661800         1
H          11.11779400      8.49336200     12.30439600         1
H          11.75105800      6.91748800     11.72718000         1
N          10.54524900      9.41589500      8.42339400         1
C          10.17259500     10.57184400      7.60999000         1
H          10.39100000     10.35236300      6.54125300         1
H          10.81482600     11.44433300      7.91221000         1
C           8.68715900     10.96104800      7.78877500         1
H           8.59840200     12.04551500      7.54908600         1
H           8.06185900     10.42234700      7.05342700         1
C           8.13537300     10.72778000      9.19327800         1
H           7.92435200      9.65582600      9.37186400         1
H           7.16478100     11.24548400      9.32004200         1
C           9.07824000     11.24871700     10.28241100         1
O           9.83722800     12.18660800     10.00589300         1
O           9.04400400     10.63293800     11.37560400         1
P          12.12207300     11.77318600     12.59114700         2
O          12.89878300     10.85879700     11.74368900         2
O          10.87722900     11.10025600     13.31188500         2
H          10.10268900     10.96889400     12.59182800         2
O          13.01179200     12.30659900     13.80041200         2
H          12.41033000     12.93103600     14.36371400         2
O          11.58921500     13.09374100     11.89802200         2
H          10.88141200     12.80809200     11.15036000         2
O           8.76975700      7.95477100     11.33144200         3
H           8.86015600      8.94186600     11.34831300         3
H           8.08452000      7.77382300     11.96431900         3   


