%nproc=24
%mem=50GB
#p M062X/6-311+G(2d,p) nosymm em=GD3 counterpoise=4

Title Card Required

0 1
O           8.00635100      6.85043400      8.55878200         1
H           8.92218000      7.03233200      8.83589800         1
H           7.83453200      7.49223300      7.85299300         1   
O          11.64800100     11.12772100     12.40137900         2
H          12.54426400     11.42343000     12.49557400         2
H          11.66059700     10.50368900     11.63250800         2
O           7.49403800      8.82130700      6.63339500         3
H           8.32963500      9.32823700      6.61600000         3
H           7.47265200      8.37853900      5.78492300         3
O           6.08282700      7.34331800     10.42743900         4
H           5.37189400      6.73541300     10.25868600         4
H           6.77908100      7.10140900      9.77677400         4 


