          39
 Energy =     -0.60913400 a.u.  #Cluster:    1
C           9.48291700      6.36733700      8.15447000
C          10.04988700      7.61883700      8.35613500
C           9.91321700      7.26414400      6.12211100
N           9.39438400      6.16442400      6.76375700
H           9.16292600      5.63850100      8.88073000
H          10.32507500      8.10974500      9.28911400
H          10.06865100      7.37419100      5.02257200
C           8.89339700      4.95417700      6.10451600
H           9.64371400      4.12732100      6.18541000
H           7.94007800      4.62137500      6.54447000
H           8.74860300      5.12239800      5.01602900
N          10.29919900      8.17538200      7.08986400
C          10.90992800      9.49465800      6.80935000
H          10.34190700     10.27032300      7.37246100
H          10.78383000      9.71714700      5.71067800
C          12.39865100      9.55068400      7.18346100
H          12.67393000     10.61959800      7.31776200
H          12.56802700      9.09274600      8.19331400
C          13.30875000      8.92975100      6.13362000
H          14.25479000      9.50636700      6.06104700
H          12.86165800      9.06112600      5.11139600
S          13.65120100      7.23328200      6.43837600
O          14.78151700      6.83617800      5.55748000
O          13.83210100      7.04301000      7.88674400
O          12.45135500      6.41731800      5.94214700
P          12.00240700      5.05507500      4.21106200
O          11.04898600      6.15926100      3.86921700
O          13.57881500      5.13646300      3.89752400
H          14.23726600      5.75800200      4.45387400
O          11.72651200      4.21954200      5.60949100
H          12.01382700      4.72146000      6.45317800
O          11.66733900      3.79613600      3.19212000
H          12.39863200      3.13971700      3.06569500
O          12.31610500      7.88103500      9.89470800
H          12.96148700      8.04414800     10.57255500
H          12.77687600      7.28744700      9.23727200
O          11.19469800      8.79964900      3.86746600
H          11.37767700      7.80266500      3.86536800
H          10.98970300      9.00939600      2.96345800
          39
 Energy =     -0.60567500 a.u.  #Cluster:    2
C           9.63077600      8.15728700      8.59659400
C          10.11504400      9.29345300      7.97117500
C          10.09225600      7.62270200      6.45062600
N           9.61096300      7.13549600      7.63915100
H           9.34371000      7.99423100      9.62271400
H          10.29359100     10.27454400      8.36269300
H          10.18818300      7.06380400      5.50825500
C           9.49300500      5.71817000      7.94211600
H          10.20717800      5.45459400      8.75919900
H           8.46772300      5.46172000      8.24898100
H           9.79390300      5.10226700      7.06586900
N          10.39112100      8.94731700      6.63798500
C          11.16848500      9.76088900      5.70693500
H          10.80376600     10.81105900      5.75530300
H          10.98062100      9.40428500      4.65870000
C          12.67475800      9.69698500      6.03995500
H          13.16630500     10.56827900      5.55705500
H          12.83211900      9.85381000      7.13140900
C          13.35016400      8.41662700      5.56573400
H          14.40479800      8.62003500      5.29331500
H          12.89070900      8.05088700      4.62345100
S          13.35496700      7.05889900      6.76042400
O          14.43572300      6.16271000      6.31996600
O          13.46962800      7.65704500      8.10527100
O          11.99725600      6.40911100      6.60362100
P          12.53820200      4.63261000      3.74466400
O          12.41817300      5.92428300      3.05484700
O          13.96890300      4.24502600      4.29708700
H          14.24050000      4.93672200      5.05391300
O          11.50349200      4.39989700      4.92346300
H          11.68512600      5.14344100      5.67104900
O          12.21201800      3.43996800      2.73872300
H          12.37700100      2.55748100      3.24688300
O          11.57424900      7.14589400     10.06706100
H          12.14639700      7.01696900     10.81503100
H          12.20313600      7.33782100      9.32957200
O          10.24559200      7.73228100      3.51805500
H          11.01054100      7.13835300      3.35943100
H           9.61994500      7.48305600      2.84373500
          39
 Energy =     -0.60415400 a.u.  #Cluster:    3
C           9.31499000      7.24414500      8.20878400
C           9.84164500      8.51393500      8.01996900
C          10.12353700      7.35051600      6.10728100
N           9.48608800      6.54475900      7.00937200
H           8.88828700      6.80339900      9.08957700
H           9.94867000      9.32408600      8.71887900
H          10.41336100      7.08161500      5.08967700
C           9.20226200      5.13418000      6.82210500
H           9.14127400      4.87137600      5.74435600
H          10.02881700      4.51903000      7.25148900
H           8.25528300      4.84982400      7.30846100
N          10.31806900      8.57080200      6.70653500
C          11.07081400      9.68015700      6.12591800
H          10.57387400     10.63482800      6.41132800
H          11.02058200      9.61372900      5.00589700
C          12.53858400      9.67852700      6.59757500
H          12.93086600     10.71333700      6.51067600
H          12.58898400      9.45268900      7.68946200
C          13.42127700      8.73251500      5.79247900
H          14.42191900      9.17798300      5.63752500
H          13.02224100      8.57148300      4.77217300
S          13.65555700      7.12858100      6.58563400
O          14.47436600      6.35027400      5.63822800
O          14.19574400      7.40469900      7.91789800
O          12.25419100      6.54508700      6.70132800
P          12.00826400      4.49274100      3.89816600
O          11.22768700      5.55874200      3.25748200
O          13.57776500      4.54314300      3.75604100
H          13.97811500      5.22441600      4.47298500
O          11.64999400      4.26919900      5.42716800
H          11.91674300      5.14203800      5.98581100
O          11.62915200      3.09262400      3.23664100
H          12.22797500      2.37700800      3.67841400
O          11.81032400      7.54327700      9.42885100
H          11.84949100      7.05367600      8.58971000
H          12.75023800      7.64616400      9.63724500
O          11.16481800      8.47196800      3.16593600
H          11.24010400      7.50404500      3.16235000
H          11.40807000      8.72941500      2.28059900
          39
 Energy =     -0.60393800 a.u.  #Cluster:    4
C           9.11692700      9.01107300      8.71354800
C          10.01988000      9.89955700      8.14357000
C          10.06208100      7.99565700      6.93645900
N           9.15486200      7.84472200      7.94906700
H           8.48730600      9.12572900      9.57609500
H          10.28363200     10.89719200      8.43802000
H          10.34372600      7.22152900      6.17264000
C           8.39676100      6.63867900      8.22628700
H           8.01999900      6.17949800      7.28242400
H           9.05351400      5.87141200      8.71027700
H           7.54218500      6.83974700      8.88980300
N          10.58865100      9.25728200      7.04141800
C          11.64515500      9.82622400      6.20073600
H          11.36046200     10.86723900      5.93037200
H          11.69123600      9.24384100      5.23584200
C          13.01036800      9.80353300      6.92356600
H          13.46334400     10.81434300      6.87316500
H          12.86762700      9.60727400      8.01159300
C          13.98537500      8.78548400      6.34331700
H          14.95803600      8.84282800      6.86618100
H          14.20825000      9.00107300      5.28201600
S          13.35005900      7.10338100      6.47100500
O          14.41162100      6.18618400      6.05531400
O          12.87565200      6.95801600      7.87323000
O          12.16035700      7.11790400      5.55063100
P          12.85394200      4.38029400      3.20147000
O          12.50035000      3.25743500      2.34266000
O          13.79967500      3.95417400      4.39261200
H          14.11289600      4.78914700      4.93996700
O          13.62712400      5.61400800      2.51002400
H          14.11649700      5.27416600      1.68922400
O          11.58227300      5.11375600      3.79379800
H          11.86957400      5.96518800      4.34464800
O          11.08127600      5.12195700      8.57680100
H          11.74358900      5.84942700      8.39876600
H          11.61886700      4.36662500      8.78866100
O           9.64655400      5.25688700      6.15576100
H          10.20178600      5.05135100      6.92429700
H          10.18855500      5.05619500      5.38474500
          39
 Energy =     -0.60228000 a.u.  #Cluster:    5
C           9.05757700      9.17508800      8.57097600
C          10.13058500      9.98482000      8.22201100
C          10.11969000      8.20907100      6.83193100
N           9.06593900      8.08796900      7.69627600
H           8.32929900      9.29324700      9.35154900
H          10.46580300     10.90824700      8.65398600
H          10.41580800      7.47544400      6.03310200
C           8.12832100      6.98063500      7.73502600
H           7.21358500      7.24336800      8.28823500
H           7.84531000      6.66251200      6.70326300
H           8.59694700      6.09045300      8.22001600
N          10.77003400      9.37632300      7.13947600
C          11.98827900      9.88387200      6.50297800
H          11.86946100     10.97670600      6.33185700
H          12.08799600      9.40821900      5.48474600
C          13.23492300      9.59905300      7.36970000
H          13.80293200     10.54106700      7.50831000
H          12.92899800      9.29504400      8.39774500
C          14.15467800      8.53888000      6.77470200
H          15.05040900      8.40624300      7.40931500
H          14.53777300      8.84768400      5.78486800
S          13.31695200      6.95177900      6.60384500
O          14.30840000      5.95684500      6.19189100
O          12.65399900      6.70467400      7.91113300
O          12.26603900      7.23215100      5.56439600
P          12.81533200      4.57785200      3.07587700
O          12.39143600      3.56780400      2.11500400
O          13.56138200      3.95039800      4.31883800
H          13.93918600      4.69698000      4.94714300
O          13.82426600      5.71640600      2.54521500
H          14.35676600      5.34306000      1.76630900
O          11.60853400      5.46199500      3.59403800
H          11.95391900      6.22360600      4.23551500
O          10.69117800      4.91189300      8.18460500
H          11.16959300      4.09083000      8.24084200
H          11.40523300      5.60780600      8.18601800
O           9.48524200      5.62869900      5.76065000
H           9.92720300      5.24127600      6.53507600
H          10.06101500      5.43201700      5.01354300
          39
 Energy =     -0.60216200 a.u.  #Cluster:    6
C           9.87999000      7.28503600      8.77888500
C          10.75051200      8.35412800      8.94762100
C           9.96779500      8.42489000      6.83604600
N           9.39768600      7.35267200      7.47132900
H           9.61724200      6.48842400      9.45820700
H          11.32595500      8.64232700      9.80522000
H           9.79404400      8.71969800      5.79477300
C           8.61332700      6.32467300      6.80860300
H           9.29562000      5.53538600      6.39697100
H           7.91426100      5.84232100      7.51058000
H           8.05086600      6.73651000      5.94794900
N          10.79833800      9.04502300      7.73085200
C          11.72007700     10.13852400      7.41646900
H          11.51726500     10.98043000      8.11781400
H          11.50251000     10.50960800      6.38244400
C          13.19781000      9.69620800      7.52327800
H          13.77944000     10.52337100      7.98120200
H          13.29724700      8.84583000      8.23818000
C          13.82878700      9.32421700      6.18579800
H          14.91741100      9.16406100      6.30946900
H          13.73456600     10.14443600      5.45281700
S          13.10210400      7.82817500      5.49115400
O          13.86120900      7.42689000      4.30506800
O          13.12651500      6.82016300      6.58289700
O          11.69643900      8.25648900      5.17638100
P          12.53037800      3.89178500      4.41690000
O          12.48787700      2.52262300      3.93881900
O          12.73422100      4.95142500      3.25041900
H          13.28390000      5.77328100      3.56078400
O          11.17573900      4.33343800      5.16082200
H          10.71061800      5.11435500      4.70250400
O          13.61946300      4.12445800      5.54530200
H          13.47541400      5.04709900      6.00337800
O          11.22598600      5.32882100      8.01506500
H          11.19062300      4.59375000      7.39569500
H          11.93313200      5.88669500      7.63102200
O           9.76480000      6.70087000      4.17474500
H          10.50287400      7.28857700      4.48761000
H           9.91798100      6.60334700      3.23693700
          39
 Energy =     -0.60177800 a.u.  #Cluster:    7
C           9.04227500      9.12488600      8.52511200
C          10.00140300     10.00794400      8.04743100
C          10.10810200      8.12794300      6.80523600
N           9.12130700      7.97345300      7.74071800
H           8.34776800      9.23377000      9.33707800
H          10.25805000     10.99422500      8.38331000
H          10.43202800      7.36590000      6.04622400
C           8.30595700      6.78653500      7.92328600
H           7.96215800      6.38499900      6.94014800
H           8.90204900      5.97399500      8.40443200
H           7.42410800      6.99300900      8.54900500
N          10.64323800      9.37886300      6.97788800
C          11.76802900      9.95367300      6.23582200
H          11.53330100     11.01603900      6.00338600
H          11.85731400      9.42195800      5.24475600
C          13.08194000      9.84871900      7.04180600
H          13.56962200     10.84393800      7.07095500
H          12.86052000      9.60555200      8.10708700
C          14.05961000      8.82464500      6.47663000
H          14.98422300      8.79939900      7.08264600
H          14.38371000      9.09906000      5.45610000
S          13.33870200      7.17357600      6.43209400
O          14.40097200      6.21827900      6.10964900
O          12.68136300      6.98509400      7.75348200
O          12.27701900      7.29110600      5.37529600
P          12.86391900      4.23846200      3.36541300
O          12.41375900      3.05805800      2.63931800
O          13.66685100      3.89549100      4.67925300
H          14.06828600      4.76811900      5.10723200
O          13.87465400      5.23229900      2.60334500
H          13.76524400      5.10518400      1.60213600
O          11.64431500      5.18225200      3.73687000
H          11.96418900      6.04950500      4.23101100
O          11.05080600      4.91078800      8.23331800
H          11.64805500      5.70429600      8.16876300
H          11.64695700      4.16782000      8.20086300
O           9.60170800      5.45567300      5.90767300
H          10.11647200      5.12296100      6.66352100
H          10.13003400      5.23254100      5.13171800
          39
 Energy =     -0.60050700 a.u.  #Cluster:    8
C           9.46873900      6.88389000      8.14868500
C          10.12433100      8.11033700      8.10323300
C           9.97063400      7.31701500      5.98709500
N           9.37901800      6.40568900      6.83027800
H           9.10444900      6.33972700      9.00458900
H          10.44352600      8.75428800      8.92009800
H          10.13738300      7.20658700      4.89021900
C           8.86934300      5.09560200      6.41827400
H           9.73591700      4.40633200      6.18790100
H           8.26201100      4.62677400      7.20750300
H           8.26906100      5.16633100      5.49412900
N          10.41293900      8.37837700      6.75678000
C          11.17846500      9.52718400      6.22863500
H          10.82316200     10.45813300      6.72632000
H          10.95174000      9.63330100      5.12618300
C          12.68913200      9.35041000      6.44885100
H          13.18739700     10.29618000      6.14280900
H          12.90259800      9.26480200      7.54649300
C          13.28917100      8.18740000      5.66898100
H          14.18314600      8.53224400      5.10596700
H          12.59696600      7.87676300      4.83415000
S          13.70230700      6.80852800      6.67754800
O          14.50154900      5.90526100      5.85558900
O          14.20355300      7.28145300      7.96469300
O          12.31653100      6.07653700      6.98398200
P          11.83461700      4.98962000      3.87738700
O          11.43419600      6.43434700      3.71079300
O          13.42019800      4.71161300      3.54541000
H          14.09628800      4.91170200      4.28503900
O          11.51159200      4.41759300      5.28072700
H          12.00921600      5.14516700      6.34491900
O          11.15781700      4.04011000      2.71783200
H          11.72243500      3.28497800      2.40016000
O          12.52674100      8.69251800      9.54055300
H          13.13386800      9.11142800     10.14139200
H          13.00887300      7.89417400      9.20491600
O          10.98257000      8.74333600      3.31478800
H          11.85738300      8.30294100      3.33154600
H          10.41115400      8.06133600      2.92555300
          39
 Energy =     -0.60029300 a.u.  #Cluster:    9
C           9.96613400      7.36228500      8.77119100
C          10.74940700      8.50199400      8.90364200
C           9.99227100      8.41912600      6.78278200
N           9.50062000      7.33515900      7.45615100
H           9.75697600      6.57380400      9.47907800
H          11.30553900      8.85736600      9.74945000
H           9.82574900      8.64903600      5.72748200
C           8.76695900      6.24063200      6.84480600
H           8.13857500      5.72056000      7.58708700
H           8.14423600      6.59124900      6.00048200
H           9.48512000      5.48673500      6.42789900
N          10.75350200      9.14823900      7.66343600
C          11.60237400     10.28389400      7.29474800
H          11.27215600     11.17175500      7.88260000
H          11.43959200     10.52003000      6.21242200
C          13.10258300     10.00956200      7.54957000
H          13.60010100     10.97921800      7.76149900
H          13.22896600      9.40753600      8.47878400
C          13.81921900      9.32485300      6.38955600
H          14.89435400      9.20601700      6.61972000
H          13.77834500      9.93963800      5.47311200
S          13.10601500      7.70412800      6.04037700
O          14.05487700      6.92073500      5.23008100
O          12.78978900      7.13196800      7.36381300
O          11.85720500      8.06234300      5.28471400
P          12.69853100      3.90358200      4.24892100
O          12.52471200      2.62925100      3.58017100
O          12.82256000      5.14601300      3.25150400
H          13.32841100      5.91550500      3.72326000
O          11.48264100      4.29299700      5.22267000
H          10.89936500      5.02308000      4.80791400
O          13.94147700      3.94102700      5.23591100
H          14.14033900      4.93211100      5.48073900
O          11.14124000      5.02457100      8.16174600
H          11.31098000      4.43298400      7.42401500
H          11.78852400      5.74286600      8.00637900
O           9.90661900      6.57186300      4.23375500
H          10.66257400      7.12756900      4.56447000
H          10.09138300      6.44873400      3.30407300
          39
 Energy =     -0.59910500 a.u.  #Cluster:   10
C           9.05702500      9.04956200      8.60306800
C          10.13108100      9.88875000      8.33526300
C          10.11054400      8.26386600      6.77230800
N           9.05906300      8.05799100      7.62202500
H           8.33273900      9.08720700      9.39556700
H          10.47053400     10.76134000      8.85971600
H          10.40880900      7.61715000      5.90730500
C           8.12158500      6.95290300      7.55327100
H           7.87028100      6.70581000      6.49434000
H           8.57744800      6.02807700      7.99129200
H           7.19038100      7.17583000      8.09555300
N          10.76497400      9.39340500      7.19374800
C          11.98375700      9.96172500      6.61201000
H          11.87825500     11.07030700      6.59008100
H          12.06725400      9.63291300      5.54109100
C          13.23752300      9.55538000      7.41737000
H          13.85507700     10.45845300      7.60012300
H          12.94369500      9.19953700      8.43271900
C          14.08833900      8.49729400      6.72574600
H          15.01301100      8.31068300      7.30374400
H          14.42879100      8.84034500      5.73129300
S          13.20302800      6.93887000      6.52844400
O          14.17762600      5.90851800      6.16958300
O          12.47690500      6.72993800      7.81120200
O          12.20004800      7.23860000      5.45050700
P          12.83825900      4.62851900      2.94149200
O          12.46758800      3.65382100      1.92364400
O          13.52745700      3.95768800      4.19467300
H          13.86485800      4.68174300      4.86962800
O          13.86866000      5.78769100      2.50321400
H          14.41714100      5.45687100      1.71670400
O          11.60378100      5.48794800      3.43535300
H          11.91950700      6.24178700      4.09967600
O          10.47041400      4.99112500      8.04950200
H          10.90887200      4.16236500      8.20802500
H          11.20810800      5.66275300      8.04760300
O           9.34019700      5.50600400      5.49849200
H           9.78290300      5.18797900      6.29813000
H           9.97450100      5.37926400      4.78650600
          39
 Energy =     -0.59910100 a.u.  #Cluster:   11
C           9.55181600      7.76164500      7.75260400
C          10.45437400      8.65460800      8.31666100
C          10.75119600      8.67957400      6.08271500
N           9.74197800      7.80388100      6.37135800
H           8.85264900      7.08635800      8.22165000
H          10.63455400      8.88771800      9.34790500
H          11.16490700      8.87768600      5.08937500
C           9.06740600      6.95224700      5.40986100
H           7.97548000      6.95889700      5.56014100
H           9.30038600      7.23814300      4.36652500
H           9.41664100      5.89122100      5.53035300
N          11.18702000      9.21949300      7.26876800
C          12.35230100     10.09461100      7.41671100
H          12.00907200     11.06084800      7.85394000
H          12.76790900     10.31690900      6.40001200
C          13.45359100      9.47429600      8.30701300
H          13.99395200     10.29941300      8.81642100
H          12.99240600      8.87728000      9.12679600
C          14.45865600      8.61462200      7.54605400
H          15.23740500      8.23536500      8.23271500
H          14.99579400      9.20448200      6.78240000
S          13.64654500      7.21811600      6.74116200
O          14.64251800      6.23367100      6.31649300
O          12.65115900      6.74198600      7.73079700
O          12.95541800      7.87984200      5.57397200
P          12.17955900      4.86750400      3.63480000
O          11.13986100      3.89437300      3.30366600
O          13.13387100      4.27527200      4.74845700
H          13.79739500      4.97240000      5.13415700
O          13.15885600      5.35507300      2.46409000
H          13.47431800      4.53035400      1.95124500
O          11.53326800      6.23811200      4.07401900
H          12.24325900      6.90478400      4.49510800
O          10.41760200      5.16673900      7.79292300
H          11.21209700      5.75260300      7.70751700
H          10.75901200      4.40848100      8.25872400
O           8.95115900      3.74705600      5.67657000
H           9.48351200      4.13283600      6.38112800
H           9.56111700      3.61150600      4.94520100
          39
 Energy =     -0.59811100 a.u.  #Cluster:   12
C           9.69680200      6.51306000      7.57632600
C          10.48367200      7.62430400      7.87509700
C           9.91767500      7.72130100      5.69505800
N           9.35912700      6.59800900      6.22677000
H           9.42178000      5.68592300      8.20113800
H          10.97958700      7.89018200      8.80195700
H           9.86148500      8.04476900      4.66093100
C           8.57284100      5.61901500      5.50226400
H           9.03757000      4.60977600      5.58871900
H           7.54135400      5.57436400      5.89160500
H           8.52994700      5.85378600      4.41562000
N          10.59508500      8.36853100      6.70459100
C          11.35156000      9.60559500      6.51495600
H          10.81601600     10.42808100      7.04891200
H          11.35448700      9.86533000      5.42822000
C          12.80057200      9.51656300      7.02825500
H          13.25271900     10.52862000      6.94135200
H          12.80782200      9.32000400      8.12526600
C          13.65104100      8.51120500      6.26593500
H          14.66618300      8.91261400      6.08948500
H          13.24508400      8.31593900      5.25483800
S          13.83379600      6.93153700      7.13184700
O          14.68847800      6.11717700      6.24271300
O          14.36530600      7.27310200      8.46335900
O          12.43512700      6.37820400      7.21780700
P          12.12566700      5.22783900      4.04910600
O          11.72914300      6.60236500      3.69391000
O          13.66242400      4.88693000      4.01827600
H          14.13361100      5.33115000      4.87782600
O          11.51626500      4.69942700      5.40633800
H          11.87243900      5.33752900      6.21933900
O          11.50594200      4.22454200      2.96748600
H          11.88737000      3.28804200      3.15842100
O          12.72950100      8.36702800     10.37941600
H          13.34255900      7.94591000      9.72881600
H          13.07813200      8.10624200     11.22199600
O           9.17478700      7.21383500      2.51401100
H          10.07044900      6.98535700      2.82232600
H           9.12661200      6.83682300      1.63971700
          39
 Energy =     -0.59787200 a.u.  #Cluster:   13
C          10.02005700      7.04484700      8.56183000
C          10.64943500      8.24879200      8.84797600
C          10.07088200      8.26526600      6.67006700
N           9.66560100      7.07768500      7.21166400
H           9.85438500      6.17830400      9.18428100
H          11.09184400      8.59130400      9.76268300
H           9.94891000      8.57051300      5.62610300
C           9.11963900      5.95866300      6.46507200
H           9.12561800      6.15597300      5.37118100
H           9.75741000      5.04990800      6.62139900
H           8.09222800      5.72583200      6.78665200
N          10.67001700      8.99886900      7.66617900
C          11.45859100     10.21567000      7.44948000
H          11.02952400     11.02550200      8.08325500
H          11.34890900     10.53284900      6.38096800
C          12.95696100     10.01979400      7.78620100
H          13.36722500     10.99894500      8.11003500
H          13.06169200      9.34947900      8.66969500
C          13.80385600      9.48330300      6.63406400
H          14.85512900      9.36655900      6.95266000
H          13.82298800     10.19203100      5.78786900
S          13.17425100      7.89242400      6.04849800
O          14.20564400      7.19156200      5.27749000
O          12.70803500      7.21897600      7.27876300
O          12.00696200      8.33640500      5.20575300
P          12.40703500      4.01256200      4.10459900
O          12.25487600      2.86383400      3.22471200
O          13.35738600      5.12295000      3.52085500
H          13.72006500      5.76832400      4.27059800
O          11.03506400      4.68725800      4.54512900
H          10.87590100      5.58102200      4.04514500
O          12.98064900      3.70193100      5.57789700
H          13.12375200      2.69563600      5.65726300
O          11.63418800      4.81692700      8.12806000
H          11.99089500      4.28933200      7.41051900
H          12.05071500      5.68672700      7.94795600
O          10.37038500      7.19991700      3.49447000
H          11.03355100      7.65621900      4.09035200
H          10.74976700      7.26792200      2.62263200
          39
 Energy =     -0.59736800 a.u.  #Cluster:   14
C           9.69928800      7.46301500      8.98545300
C          10.25544400      8.73303200      8.93468500
C          10.31111400      7.86533700      6.85443800
N           9.73881200      6.94529000      7.68927800
H           9.30845400      6.91118900      9.81945100
H          10.41257500      9.44823600      9.71770300
H          10.47159200      7.73575400      5.76524000
C           9.33379600      5.60512400      7.30663600
H           8.26091500      5.56686100      7.05628600
H           9.92104200      5.24744800      6.42179900
H           9.55808700      4.87638300      8.11246300
N          10.61598500      8.97625200      7.60395700
C          11.42219300     10.12053200      7.16896800
H          10.97398100     11.04528900      7.59912300
H          11.35041900     10.22320000      6.05476300
C          12.89743900      9.98440300      7.62008900
H          13.25605500     10.98053200      7.95132900
H          12.95102500      9.33651300      8.52480500
C          13.84693100      9.44642900      6.55136100
H          14.86387200      9.33037300      6.96685900
H          13.94549800     10.16078700      5.71418400
S          13.27689100      7.86142400      5.89841100
O          14.39078600      7.11037200      5.32735300
O          12.62229600      7.21633900      7.08005700
O          12.22637700      8.29475100      4.92669800
P          12.16501000      4.13643400      4.09746600
O          11.65286600      3.24670700      3.06769300
O          13.43100200      4.92423200      3.57292400
H          13.81054100      5.58508200      4.27441200
O          11.13800100      5.22120900      4.68329500
H          10.84943800      5.90789000      3.97702200
O          12.57640700      3.38770600      5.43538000
H          12.30624800      3.94696400      6.26805700
O          12.00076800      4.75897100      7.92381700
H          12.79040000      4.51581800      8.39651000
H          12.19431500      5.68066100      7.60023700
O          10.44997300      7.43719700      3.09928300
H          11.12749500      7.84390100      3.69399000
H          10.90668700      7.32237200      2.26853500
          39
 Energy =     -0.59675700 a.u.  #Cluster:   15
C           9.36497700      6.92181300      7.87964000
C          10.05441500      8.11571300      8.06693100
C          10.00321500      7.67106100      5.84605600
N           9.34242100      6.66072900      6.49974700
H           8.93129600      6.26354200      8.61569200
H          10.33549400      8.61230300      8.99196700
H          10.19144500      7.71892200      4.75375600
C           8.79993300      5.46530400      5.85049200
H           7.86276900      5.13370900      6.32123000
H           8.61070100      5.66016700      4.76590600
H           9.55299600      4.63442700      5.90306300
N          10.43457200      8.58043700      6.79782000
C          11.28621000      9.75663900      6.51406200
H          10.89615700     10.62675500      7.09419900
H          11.19543200     10.01896700      5.43249600
C          12.75398800      9.49012000      6.88690300
H          13.30712400     10.45203800      6.82958800
H          12.80945000      9.20019900      7.97121900
C          13.43002200      8.45473400      5.99832300
H          14.28910800      8.90921600      5.46099300
H          12.76845600      8.15263100      5.13927800
S          13.94071300      7.03439900      6.89878800
O          14.65949800      6.16760400      5.96645200
O          14.56386500      7.43248200      8.15099100
O          12.57960500      6.29762900      7.30300800
P          12.06474000      5.25580700      4.14396900
O          11.69099300      6.70177200      3.91705300
O          13.61734800      4.88015200      3.80489000
H          14.32861900      5.15013900      4.49906500
O          11.68963000      4.72457100      5.55390200
H          12.16187500      5.41381900      6.60365000
O          11.30822500      4.31801400      3.01515700
H          11.79877400      3.50262000      2.73231000
O          12.38242600      7.79988800      9.50642700
H          12.20595200      6.92935300      9.10433600
H          13.34799500      7.81480800      9.65132300
O           9.15524900      6.83930100      3.06093100
H          10.14187800      6.99876100      3.09719200
H           9.04245000      6.18946600      2.37119700
          39
 Energy =     -0.59078200 a.u.  #Cluster:   16
C           9.39357700      8.70960000      8.55405400
C          10.49358900      9.48665100      8.22586900
C          10.01221700      8.17071800      6.43982000
N           9.09993900      7.90509700      7.43632700
H           8.84589800      8.64177000      9.48326000
H          11.01121800     10.22304100      8.81729200
H          10.04453500      7.65240600      5.44758600
C           8.11025000      6.82243400      7.40499200
H           7.09824800      7.19569600      7.62726500
H           8.10114200      6.32083700      6.40952200
H           8.39150600      6.04794500      8.16257800
N          10.87572500      9.14447600      6.91007700
C          12.12347400      9.57894500      6.24102200
H          12.10740200     10.68994100      6.15255500
H          12.13807500      9.17009000      5.19808300
C          13.37574200      9.11945600      7.01535500
H          14.15138300      9.91025500      6.91069200
H          13.16725800      9.06430400      8.10874600
C          13.95596800      7.80016700      6.53573700
H          14.98986600      7.68066600      6.92456700
H          14.11844300      7.81637000      5.42550300
S          12.97495000      6.39901200      6.97245000
O          13.71800900      5.20792900      6.53502600
O          12.59510800      6.49948100      8.38955600
O          11.69424200      6.52505000      6.11706900
P          13.16678100      5.62286200      2.97196900
O          13.24305200      5.43968700      1.52290300
O          13.88521800      4.49982400      3.88634100
H          13.88583900      4.61025900      4.92449500
O          13.94619200      7.02043100      3.52657100
H          14.59944900      7.42197700      2.91785100
O          11.72719700      5.90797500      3.63904100
H          11.73218400      6.26578200      4.69210900
O          10.11099300      6.06956500      9.52924600
H          10.34873200      5.37601000     10.13368300
H          10.96329600      6.31788100      9.08296800
O           9.50433900      5.98163200      4.77383200
H          10.21523400      5.51814100      5.26868000
H           9.72375100      5.84565100      3.83531700
          39
 Energy =     -0.58955500 a.u.  #Cluster:   17
C          10.15368900      6.89616500      8.73321000
C          10.84862900      8.07724700      8.96465200
C          10.28022600      8.02039000      6.77287700
N           9.79896400      6.87892600      7.37387700
H           9.95742200      6.06798100      9.40560200
H          11.28421100      8.44104000      9.88007400
H          10.21186900      8.26711000      5.68967400
C           9.15466900      5.76445900      6.67273400
H           8.18718000      5.50236000      7.12820000
H           9.00031800      5.99852400      5.59565900
H           9.82580500      4.86605300      6.69847100
N          10.92571200      8.76850600      7.73980500
C          11.75734400      9.96624600      7.47601400
H          11.45864300     10.76676300      8.19062500
H          11.52606400     10.34241800      6.44584100
C          13.26322300      9.65582700      7.61311200
H          13.75116300     10.51189200      8.12594500
H          13.41838000      8.78040700      8.28877900
C          13.97655200      9.39732000      6.29255100
H          15.06789200      9.29279100      6.47359000
H          13.90610100     10.27705800      5.62164700
S          13.34855500      7.94991800      5.47833500
O          14.34644600      7.47838900      4.51804100
O          13.05384200      6.97318300      6.60372700
O          12.04494400      8.41696300      4.87912400
P          12.06181500      4.38950900      4.46650000
O          12.76570900      3.18681400      4.03168400
O          12.64729100      5.88553500      4.03881400
H          13.59629700      5.99592400      3.68406400
O          10.52675800      4.59216800      3.96224500
H          10.21419700      5.59905100      3.86462900
O          11.93244500      4.68951200      6.06764600
H          12.38686300      5.64646200      6.37407300
O          11.89369200      4.96013800      8.55953600
H          11.88750600      4.16774400      8.00000600
H          12.49993300      5.57792300      8.11347800
O          10.03307400      7.18770600      3.93854500
H          11.03099300      7.47122200      4.08506700
H           9.83560500      7.48236500      3.05155400
          39
 Energy =     -0.58820100 a.u.  #Cluster:   18
C           9.29844200      8.97998600      8.71418700
C          10.27279200      9.89816700      8.34454300
C          10.21215100      8.26949400      6.76704400
N           9.27172900      7.97763800      7.72853600
H           8.65741500      8.97533500      9.58099500
H          10.58793000     10.79826100      8.84473200
H          10.43126200      7.63691500      5.84968400
C           8.42429100      6.78110200      7.73703700
H           8.06421100      6.54746500      6.70365400
H           9.01887900      5.88490400      8.04799800
H           7.55940900      6.89243300      8.40510400
N          10.82982300      9.45348400      7.12985000
C          11.99912100     10.05813100      6.45136700
H          11.81994300     11.15018800      6.33635200
H          12.06438400      9.63088900      5.40827200
C          13.30224300      9.79697100      7.23536600
H          13.86874000     10.74941300      7.30981900
H          13.07002000      9.51165900      8.28784500
C          14.20116700      8.73370100      6.61661500
H          15.09038100      8.56919700      7.26174200
H          14.63751400      9.09258200      5.66023800
S          13.32756300      7.21837500      6.35585000
O          14.30374500      6.14979100      6.05851600
O          12.48299400      6.95496600      7.54708500
O          12.41953000      7.50533300      5.17351500
P          12.35588900      4.14599300      3.81574500
O          11.67870100      2.95050400      3.30748500
O          12.91479000      4.10422200      5.34309700
H          13.78036500      4.68233300      5.56445200
O          13.71985100      4.60558700      2.99102900
H          13.96847400      4.08281600      2.19670100
O          11.46947800      5.50592400      3.81483100
H          11.94199000      6.40914400      4.17098800
O          10.76069900      4.91076800      7.19387900
H          11.38257300      5.60187500      7.55187400
H          11.34465200      4.20134600      6.88414000
O           9.46490800      6.18289000      5.19007400
H           9.99693200      5.50346900      5.68701100
H           9.65503900      6.00676000      4.25275600
