%nproc=24
%mem=50GB
#p M062X/6-311+G(2d,p) nosymm em=GD3 counterpoise=2

Title Card Required

0 1
P          12.12207300     11.77318600     12.59114700         1
O          12.89878300     10.85879700     11.74368900         1
O          10.87722900     11.10025600     13.31188500         1
H          10.10268900     10.96889400     12.59182800         1
O          13.01179200     12.30659900     13.80041200         1
H          12.41033000     12.93103600     14.36371400         1
O          11.58921500     13.09374100     11.89802200         1
H          10.88141200     12.80809200     11.15036000         1
O           8.76975700      7.95477100     11.33144200         2
H           8.86015600      8.94186600     11.34831300         2
H           8.08452000      7.77382300     11.96431900         2   


