%nproc=24
%mem=50GB
#p M062X/6-311+G(2d,p) nosymm em=GD3 counterpoise=3

Title Card Required

0 1
O          11.07164400     12.19605700     12.77657800         1
H          10.84560000     12.00560200     11.83791100         1
H          11.48911500     13.04810900     12.75981100         1 
O           5.56548300      8.63476200      9.15258800         2
H           6.22490000      9.00626100      8.53779900         2
H           4.78471500      8.50229900      8.62412800         2  
O           7.59527100      9.69270100      7.54973300         3
H           7.91282300     10.56856900      7.84512200         3
H           8.37858900      9.30599500      7.14133500         3



