%chk=TMAPS.chk
%mem=60000MB
%nprocshared=10
#p opt freq B3LYP/6-311G** em=GD3BJ

Title Card Required

0 1
 C                  2.83389500    0.94429200   -0.99551400
 H                  3.38931600    0.29493100   -1.68863600
 H                  3.55088500    1.60733700   -0.48643100
 H                  2.15455300    1.58619500   -1.59850600
 C                  1.04894300   -0.71169200   -0.79706800
 H                  1.61648700   -1.31709400   -1.52772900
 H                  0.39752900    0.01064800   -1.40355700
 C                  1.34287000    1.10012700    0.91747800
 H                  0.60691500    0.58974400    1.59832900
 H                  2.05220600    1.67086200    1.52232500
 H                  0.68357000    1.80391600    0.35424700
 C                  2.95874300   -0.73220800    0.78421200
 H                  3.73162400   -0.13781900    1.29820500
 H                  2.39898200   -1.28932100    1.56021200
 H                  3.46090200   -1.47024000    0.13873500
 C                  0.14748900   -1.60967500    0.06410700
 H                  0.26446300   -1.39286000    1.14927000
 H                  0.45220700   -2.66799200   -0.05588400
 C                 -1.32387900   -1.45887900   -0.30840300
 H                 -1.95164100   -2.14782500    0.27644800
 H                 -1.50860500   -1.69022600   -1.36570300
 N                  2.02915700    0.14210000   -0.00604200
 S                 -1.91207900    0.26032400    0.02115900
 O                 -1.37333500    0.52189100    1.38127700
 O                 -1.13551200    1.02614900   -1.00296200
 O                 -3.36097600    0.22671800   -0.13536900

