%chk=BI.chk
%nprocshared=16
%mem=50GB
#p 6-311+g(2d,p) nosymm em=gd3 m062x

Title Card Required

0 1
 C                  8.94864300   10.62571600    5.06888500
 C                 10.27405700   10.12199400    4.84711700
 C                 11.20554700   10.87709100    4.12809400
 C                 10.79632200   12.10916000    3.64940700
 C                  9.49048800   12.59726800    3.87142500
 C                  8.54836700   11.87092100    4.57992300
 H                 12.21023400   10.49357200    3.96152300
 H                 11.49352500   12.72731300    3.08445500
 H                  9.22469800   13.57553900    3.46991800
 H                  7.54597100   12.24948000    4.74851600
 H                  7.34495200    9.68918500    6.12716100
 C                  9.20139000    8.59402800    6.01179400
 H                  8.94795600    7.69212700    6.56464300
 N                  8.28500300    9.63992400    5.80937300
 N                 10.38007100    8.86279400    5.44842400

