%chk=BI_PA.chk
%nproc=16
%mem=50GB
#p M062X/6-311+G(2d,p) nosymm em=GD3 counterpoise=2

Title Card Required

0 1
C           8.94864300     10.62571600      5.06888500      1
C          10.27405700     10.12199400      4.84711700      1
C          11.20554700     10.87709100      4.12809400      1
C          10.79632200     12.10916000      3.64940700      1
C           9.49048800     12.59726800      3.87142500      1
C           8.54836700     11.87092100      4.57992300      1
H          12.21023400     10.49357200      3.96152300      1
H          11.49352500     12.72731300      3.08445500      1
H           9.22469800     13.57553900      3.46991800      1
H           7.54597100     12.24948000      4.74851600      1
H           7.34495200      9.68918500      6.12716100      1
C           9.20139000      8.59402800      6.01179400      1
H           8.94795600      7.69212700      6.56464300      1
N           8.28500300      9.63992400      5.80937300      1
N          10.38007100      8.86279400      5.44842400      1
P          11.92638200      5.96067200      6.98705400      2
O          10.48878200      5.76144500      7.09897900      2
O          12.82479000      4.66314500      6.70995400      2
H          12.82936700      4.48745700      5.70090300      2
O          12.47214300      6.94169300      5.86557800      2
H          11.75656200      7.69562100      5.66718900      2
O          12.54388900      6.46966600      8.36200400      2
H          13.56087100      6.56420400      8.24768800			2

