          35
 Energy =     -0.45011100 a.u.  #Cluster:    1
C           8.99266600      7.53431500      9.76748300
C           9.39340800      8.04125400      8.53519000
C          10.84638000      8.78358200     10.10484100
N           9.90450200      8.00028600     10.72890900
H           8.14429000      6.91344900     10.00671400
H           8.94498200      7.91092900      7.56409000
H          11.70215900      9.33727400     10.59804700
C           9.82112500      7.77270400     12.17419700
H          10.82939200      7.80500400     12.64022500
H           9.22937700      8.59796300     12.65757200
H           9.34831500      6.80801300     12.41037000
N          10.54824700      8.81011400      8.75523800
C          11.27560900      9.61383500      7.75217800
H          11.38057600      9.01113300      6.82285800
H          12.31977800      9.78928200      8.14892500
C          10.63411100     10.98197200      7.43297900
H          11.40415800     11.76910000      7.61849400
H          10.40998100     11.02500800      6.34815400
C           9.37624400     11.35938900      8.20973600
H           8.56709600     10.61345000      8.08147300
H           8.96267100     12.30987400      7.80679500
C           9.64516600     11.56550700      9.69345200
O          10.63514200     12.22381800     10.07757200
O           8.81069100     11.00081600     10.47732400
P          11.11996500     11.08424800     12.99561900
O          12.06113900     10.16550200     12.28528700
O           9.58372700     10.67265800     12.85548500
H           9.07490900     10.96372100     11.83706500
O          11.40314600     11.15197600     14.60831600
H          10.93705200     11.88315900     15.09859000
O          11.20868200     12.65957700     12.58829300
H          10.97135000     12.88877100     11.59582600
O          13.00891100     10.65198100      9.91389600
H          12.46120600     11.45914700      9.93347500
H          13.28386400     10.51120200     10.84534700
          35
 Energy =     -0.44926100 a.u.  #Cluster:    2
C          10.82083000      7.13222700      8.80607300
C          10.35460700      8.03568900      7.85500800
C          11.15932600      9.21880100      9.60563900
N          11.31933300      7.88067500      9.88353000
H          10.81936000      6.05416000      8.78352900
H           9.89816100      7.84424200      6.89763500
H          11.43927700     10.05549500     10.29742100
C          11.84431100      7.34975800     11.14504500
H          11.02575400      6.90351300     11.74822000
H          12.63289700      6.60088100     10.97407000
H          12.27072800      8.18033800     11.77217700
N          10.57803400      9.32801900      8.35758200
C          10.16644600     10.60427000      7.73193900
H          10.41576700     10.57932900      6.64957100
H          10.76571900     11.44235000      8.20257700
C           8.67319200     10.90050700      7.94626600
H           8.47704600     11.91639500      7.53479200
H           8.04976000     10.20008300      7.35667400
C           8.23099600     10.85754300      9.40642200
H           8.18498000      9.80711400      9.77821100
H           7.19014700     11.23362300      9.50066700
C           9.10804400     11.63726900     10.37606200
O          10.14118900     12.22425700      9.98144800
O           8.74434000     11.57195800     11.59364000
P          11.84068900     11.58440700     12.62865200
O          11.79865000     10.17761700     12.10855500
O          10.50927500     12.12388000     13.32448100
H           9.57763800     12.09166400     12.67496700
O          13.01812200     11.80399300     13.74238200
H          13.04911000     12.70576100     14.16821500
O          12.21286600     12.68287000     11.48445500
H          11.44532300     12.88303900     10.79160400
O           9.19464300      8.92715400     11.87998300
H           8.57499600      9.65209900     12.07204300
H          10.04846200      9.23903900     12.23048400
          35
 Energy =     -0.44184500 a.u.  #Cluster:    3
C          10.42000700      7.42752600      9.44900700
C           9.99890000      8.13549000      8.32773300
C          11.27753100      9.50146100      9.58143400
N          11.21486600      8.28744900     10.20434100
H          10.17252200      6.43012900      9.77018200
H           9.36791500      7.82961400      7.51612200
H          11.81505000     10.39525800      9.93726200
C          11.75074600      7.99992200     11.52338300
H          12.78060500      8.40056100     11.63661800
H          11.11779400      8.49336200     12.30439600
H          11.75105800      6.91748800     11.72718000
N          10.54524900      9.41589500      8.42339400
C          10.17259500     10.57184400      7.60999000
H          10.39100000     10.35236300      6.54125300
H          10.81482600     11.44433300      7.91221000
C           8.68715900     10.96104800      7.78877500
H           8.59840200     12.04551500      7.54908600
H           8.06185900     10.42234700      7.05342700
C           8.13537300     10.72778000      9.19327800
H           7.92435200      9.65582600      9.37186400
H           7.16478100     11.24548400      9.32004200
C           9.07824000     11.24871700     10.28241100
O           9.83722800     12.18660800     10.00589300
O           9.04400400     10.63293800     11.37560400
P          12.12207300     11.77318600     12.59114700
O          12.89878300     10.85879700     11.74368900
O          10.87722900     11.10025600     13.31188500
H          10.10268900     10.96889400     12.59182800
O          13.01179200     12.30659900     13.80041200
H          12.41033000     12.93103600     14.36371400
O          11.58921500     13.09374100     11.89802200
H          10.88141200     12.80809200     11.15036000
O           8.76975700      7.95477100     11.33144200
H           8.86015600      8.94186600     11.34831300
H           8.08452000      7.77382300     11.96431900
          35
 Energy =     -0.44168000 a.u.  #Cluster:    4
C          10.33914300      7.49471100      9.25655600
C          10.01186400      8.32855800      8.19181300
C          11.38887200      9.45757800      9.57017500
N          11.19935000      8.20784800     10.08824200
H           9.98933100      6.50471100      9.49183900
H           9.37134400      8.15232500      7.34966100
H          11.99563700     10.26461800     10.01002700
C          11.69081600      7.75214000     11.37657700
H          11.56228800      6.66398200     11.49015000
H          12.75923600      8.01643800     11.51786900
H          11.11780000      8.25004100     12.19936500
N          10.67586600      9.53732700      8.39993900
C          10.44166000     10.78060700      7.66692600
H          10.74577300     10.64282500      6.60606600
H          11.09431100     11.58657400      8.10929000
C           8.96999900     11.23993200      7.75594500
H           8.95061700     12.33008800      7.52932300
H           8.36554500     10.74514100      6.97403300
C           8.32660900     11.01209900      9.12190700
H           8.00952000      9.95865500      9.24740900
H           7.40235400     11.61300800      9.22372900
C           9.25240200     11.39463100     10.28195900
O          10.17655900     12.19015400     10.05867100
O           9.02718200     10.81558200     11.37028300
P          12.14020300     11.44524800     12.80804800
O          12.78016900     10.37592600     12.02974000
O          10.74523500     11.06072300     13.45702000
H          10.02145600     10.99921800     12.67510500
O          13.04225300     11.83533600     14.06283400
H          12.53813100     12.57813900     14.57593800
O          11.92673100     12.81862600     12.04809100
H          11.21778100     12.64926000     11.26595000
O           8.75190900      8.12180700     11.19128100
H           8.85236500      9.10432200     11.25649400
H           8.05970300      7.92183700     11.81176100
          35
 Energy =     -0.44025000 a.u.  #Cluster:    5
C          12.01287700      8.14285200      9.80024100
C          11.99151200      9.10638900      8.79676200
C           9.94571900      9.03214100      9.72813200
N          10.73553800      8.10344900     10.35266300
H          12.82713800      7.52771300     10.15157800
H          12.78711200      9.45691500      8.16707500
H           8.91080700      9.28809800     10.00397300
C          10.34344200      7.33901700     11.52232400
H           9.31117300      6.96340600     11.42958000
H          11.03282500      6.48697800     11.68929500
H          10.40313500      7.97649400     12.44019400
N          10.70010100      9.63559000      8.75899900
C          10.30128700     10.72952100      7.86814500
H          10.79832600     10.57577100      6.88277800
H          10.71882000     11.68907700      8.29251200
C           8.77724900     10.84417700      7.68733800
H           8.54718100     10.99553100      6.61303700
H           8.27077400      9.89703700      7.95587800
C           8.17954300     11.99742200      8.49710300
H           7.08654000     11.88209000      8.60655700
H           8.34491500     12.96864900      7.99439900
C           8.81976900     12.03013700      9.88848100
O           9.61300100     12.95260900     10.12746600
O           8.54908400     11.07504100     10.65351500
P          11.66848100     11.07724800     12.23760300
O          12.35812000     10.12211200     11.35202900
O          10.21018500     10.62124000     12.65331800
H           9.49737100     10.89434200     11.88685600
O          12.44641500     11.09587100     13.63618300
H          11.98571100     11.79043800     14.24103200
O          11.64565300     12.58887600     11.80580300
H          10.80261200     12.76695800     11.14674300
O          13.07290000      7.53252900     12.56550500
H          13.46640600      7.70592300     13.41692400
H          12.89828800      8.41838000     12.19999700
          35
 Energy =     -0.43926600 a.u.  #Cluster:    6
C          10.47686800      7.46164600      9.43983800
C           9.95122100      8.13874600      8.34343200
C          11.33009400      9.54146100      9.44047800
N          11.33438900      8.34189300     10.09491800
H          10.26396400      6.47287400      9.80855400
H           9.24999900      7.80945000      7.60131600
H          11.87941600     10.44751900      9.72580100
C          12.01014200      8.07203700     11.35146300
H          12.10387500      6.98940900     11.53026100
H          13.01803100      8.53903500     11.37906400
H          11.42529300      8.51132200     12.19905200
N          10.49666000      9.42179400      8.35576800
C          10.06813400     10.54201200      7.52066100
H          10.20191300     10.26856800      6.45002900
H          10.73789800     11.42063900      7.72744900
C           8.60281800     10.95512500      7.79074800
H           8.51400600     12.03767600      7.54291300
H           7.92501000     10.41676000      7.10289600
C           8.13543700     10.74781200      9.22857500
H           7.94372400      9.67872200      9.44301400
H           7.16816000     11.25954600      9.39992900
C           9.12932900     11.29292100     10.25956400
O           9.96437400     12.12988900      9.88867500
O           9.04928800     10.79343200     11.40640600
P          12.18420500     11.83244800     12.56507400
O          12.88586400     10.72806100     11.90016400
O          10.85481300     11.42834300     13.32949500
H          10.10348100     11.21579600     12.60228500
O          13.09824600     12.46034900     13.71078000
H          12.55575200     13.22549300     14.14454500
O          11.82396200     13.07646300     11.65048000
H          11.07426300     12.77189900     10.95709900
O           9.00704400      8.08429800     11.44685100
H           9.02498400      9.07399900     11.43872700
H           8.40735800      7.87257800     12.15371000
          35
 Energy =     -0.43912900 a.u.  #Cluster:    7
C           9.36487800      7.43759800      9.63689500
C           9.79868200      7.94596000      8.41827800
C          10.97283300      8.95572400     10.05552500
N          10.11292000      8.06424200     10.63325300
H           8.60130900      6.71328900      9.84912600
H           9.47143000      7.72082500      7.42123900
H          11.68274400      9.61879200     10.57797500
C           9.89541500      7.91217700     12.05952200
H           9.09815900      8.61881700     12.40041500
H           9.59424400      6.88420400     12.31366200
H          10.81176100      8.16970000     12.63792500
N          10.80524500      8.87198200      8.69481800
C          11.47494200      9.71195000      7.70684200
H          11.56155000      9.13918500      6.75610400
H          12.52611900      9.90529200      8.06122500
C          10.77703900     11.07053200      7.44403700
H          11.48504900     11.88955900      7.72142000
H          10.61104600     11.17862300      6.35459500
C           9.46152000     11.30662200      8.17902900
H           8.74025100     10.48817100      8.01940100
H           8.97228100     12.22632800      7.80082900
C           9.72306600     11.50309200      9.67635100
O          10.49996000     12.42057600     10.00699200
O           9.19268400     10.68366300     10.45404900
P          11.01930000     11.41789400     13.31750500
O          12.01453600     10.40107400     12.96244800
O           9.51065400     10.96933500     13.10114200
H           9.31973100     10.91982400     12.04839700
O          11.08848000     11.75834100     14.87227200
H          10.37699800     12.48513900     15.05538000
O          11.17014900     12.83276300     12.61904300
H          10.86900700     12.73630000     11.60094300
O          12.96071200     11.12256200      9.80217500
H          12.17567500     11.70702800      9.84762600
H          13.43964900     11.30285900     10.61357600
          35
 Energy =     -0.43896100 a.u.  #Cluster:    8
C          11.28544300      7.21544000      8.89618800
C          11.22402800      8.31650100      8.04781600
C          10.81257900      9.03027500     10.14025500
N          11.03361600      7.68196600     10.18524400
H          11.48222300      6.18419200      8.67432300
H          11.36425900      8.37461300      6.98495700
H          10.57497600      9.67537000     11.00668100
C          10.92922400      6.87078500     11.38381400
H          10.01481400      6.24165600     11.34805500
H          11.81892400      6.23022400     11.50865800
H          10.82354000      7.51845000     12.28516500
N          10.93683000      9.42991100      8.83670400
C          10.74395800     10.79781200      8.35688000
H          11.38031500     10.96392500      7.45882500
H          11.12154200     11.51842200      9.13832600
C           9.26792300     11.09766700      8.04069500
H           9.20539600     12.16940300      7.73508600
H           8.92518400     10.50136700      7.17649700
C           8.33419700     10.88023800      9.22967600
H           8.17583700      9.80667100      9.43357900
H           7.33173000     11.29784700      9.01970500
C           8.89217800     11.59091800     10.47013500
O           9.27509800     12.75548200     10.35715900
O           8.97267600     10.88886800     11.51622600
P          12.13337600     12.03129300     12.23334800
O          12.56783200     11.07604100     11.20788200
O          11.01308100     11.49106600     13.22281300
H          10.12685600     11.32511300     12.65821100
O          13.33723100     12.41720100     13.20161300
H          12.96727800     13.09858800     13.88619200
O          11.61402900     13.43635300     11.70712200
H          10.68847600     13.27842700     11.21578900
O           8.53009400      8.27709900     11.48757900
H           8.63292200      9.27198100     11.52610600
H           7.73235100      8.10885600     11.97271600
          35
 Energy =     -0.43834900 a.u.  #Cluster:    9
C          11.18656800      7.27549200      8.63578900
C          11.05621500      8.41826500      7.85319000
C          10.99885700      9.04652900     10.01243000
N          11.15637900      7.68925100      9.96647100
H          11.29194300      6.24824500      8.34401600
H          11.03526800      8.52246800      6.78478300
H          10.94183300      9.66019000     10.92997200
C          11.18495600      6.82320500     11.13050700
H          11.16861600      7.42843300     12.06693300
H          10.27785100      6.18428800     11.16101300
H          12.08803000      6.18897100     11.13043300
N          10.95167900      9.50374900      8.72247500
C          10.73664900     10.89734400      8.33374000
H          11.34405000     11.12246400      7.42860800
H          11.13030700     11.57179400      9.14794200
C           9.24850300     11.19662900      8.08141800
H           9.16247100     12.28347500      7.84092000
H           8.88351200     10.64613000      7.19655100
C           8.36313900     10.89743100      9.28887200
H           8.26285400      9.81207600      9.46437200
H           7.33579300     11.27194900      9.12315300
C           8.92205200     11.59630500     10.53585500
O           9.31468200     12.75995300     10.42357500
O           8.97960800     10.89820400     11.58319800
P          12.11555700     12.02281700     12.32092400
O          12.52543200     11.05067100     11.29738900
O          10.98944400     11.50967000     13.31500900
H          10.11201300     11.31895200     12.73664700
O          13.33654400     12.38681600     13.27650000
H          12.98813300     13.08423700     13.95644900
O          11.62451200     13.43183500     11.78344200
H          10.69725500     13.27914100     11.28429100
O           8.86575600      8.27026000     11.43668300
H           8.87177500      9.27260900     11.51207600
H           8.12177600      8.01017000     11.96439500
          35
 Energy =     -0.43695600 a.u.  #Cluster:   10
C          10.56536600      7.52469600      9.54427400
C           9.97831400      8.21051300      8.48456300
C          11.57387200      9.52814000      9.36905800
N          11.56639500      8.34434200     10.05685500
H          10.30883800      6.57360600      9.98056100
H           9.17327000      7.91889100      7.83711600
H          12.19361100     10.40064800      9.59028900
C          12.43782800      7.99408700     11.16259400
H          13.08781000      8.84692400     11.46113900
H          11.83745800      7.73201200     12.06456400
H          13.07899400      7.13488300     10.90184900
N          10.62180300      9.44251200      8.38651300
C          10.25538400     10.53416200      7.48480900
H          10.53490900     10.24739700      6.44583800
H          10.85655500     11.44541800      7.76465100
C           8.75889700     10.90143600      7.55542600
H           8.65890500     11.93962800      7.16669700
H           8.17692900     10.25793200      6.86870800
C           8.14383400     10.83844600      8.95003000
H           7.84356000      9.80389100      9.20947400
H           7.20664500     11.42983400      8.98716000
C           9.05289300     11.34899500     10.07117000
O          10.15863200     11.83994900      9.76982100
O           8.62842800     11.16605200     11.22945400
P          11.56422200     11.35242700     13.01399800
O          11.62995500      9.89541500     13.17643400
O          10.16902600     12.05153300     13.25224800
H           9.49522900     11.72633400     12.47323300
O          12.54145300     12.06058800     14.05457300
H          12.47492700     13.07799100     13.89070300
O          12.10246600     11.85167800     11.60134900
H          11.28613700     11.97782800     10.92858000
O           9.32398700      8.41493300     11.65293300
H           8.88212800      9.26836100     11.48908000
H           9.93135800      8.64853500     12.36426800
          35
 Energy =     -0.43627800 a.u.  #Cluster:   11
C          10.11755800      7.33262700      9.18034600
C          10.37706200      8.15774300      8.09228000
C          11.10036600      9.19964200      9.95556900
N          10.57154100      7.99774300     10.32099900
H           9.65741500      6.36409000      9.21512400
H          10.17194600      8.01207900      7.04942900
H          11.56188800      9.94344400     10.61798700
C          10.38954500      7.57661400     11.69761800
H           9.68949200      8.27780500     12.21642500
H           9.98183500      6.55685700     11.75979200
H          11.35643400      7.61094300     12.25177000
N          11.00105400      9.30531300      8.58625200
C          11.21338800     10.56176700      7.86797200
H          11.96545900     10.39818300      7.06342900
H          11.64681600     11.31300700      8.58570300
C           9.90885200     11.13863000      7.27928400
H          10.10325000     12.20448500      7.01986100
H           9.65651800     10.62896500      6.33171000
C           8.71199500     11.07781800      8.22869900
H           8.22500300     10.08692000      8.20091500
H           7.93993300     11.81099000      7.92916300
C           9.14685200     11.39609900      9.66402900
O           9.57054500     12.52852100      9.91447900
O           9.10015100     10.42842400     10.46819100
P          11.08265100     11.70975700     12.97019200
O          12.31740500     11.19007400     12.35695100
O           9.87426600     10.68781400     12.95736500
H           9.46794100     10.64192000     11.94905500
O          11.33049200     11.99939100     14.51789100
H          10.44910800     12.38340300     14.89673500
O          10.54754200     13.08273500     12.40181000
H          10.16698400     12.90637300     11.41189500
O          13.26737900      8.53797900     11.76338500
H          14.12842400      8.41585900     12.15260600
H          12.98292500      9.41600200     12.07511300
          35
 Energy =     -0.43489000 a.u.  #Cluster:   12
C          10.88775600      7.04295600      8.72952300
C          11.12750600      8.18081500      7.96752800
C          10.53572900      8.84482600     10.03560400
N          10.51355600      7.47780500     10.00078000
H          10.95861100      6.00592700      8.46285800
H          11.42786400      8.27175200      6.94049800
H          10.26162700      9.48389400     10.90455100
C          10.22678700      6.62184100     11.13699300
H           9.43413600      5.89328000     10.89309800
H          11.14231900      6.08082500     11.45686300
H           9.89815700      7.22993900     12.01029700
N          10.91230100      9.28369900      8.79434200
C          10.99437600     10.68520200      8.38308100
H          11.84893800     10.80976700      7.68043800
H          11.24006100     11.31918900      9.28339300
C           9.68272200     11.17265700      7.74241100
H           9.81240200     12.25360900      7.49669200
H           9.49516500     10.65213700      6.78724300
C           8.47519300     11.03107900      8.66808300
H           8.13997600      9.98595200      8.75542200
H           7.61245300     11.60166500      8.27854300
C           8.84282200     11.59259100     10.04992300
O           9.19614500     12.77563300     10.11186200
O           8.82256400     10.76815600     10.99713800
P          11.55347200     12.00809100     12.51215700
O          12.28057500     11.08237700     11.62172400
O          10.24151900     11.39866300     13.15299000
H           9.54612500     11.19299600     12.34418500
O          12.46660400     12.38319400     13.76424400
H          11.94087500     13.07280000     14.32575800
O          11.16416500     13.40586500     11.88606700
H          10.35268600     13.23708400     11.20083700
O          12.19452600      8.25205500     12.12949400
H          12.38618200      8.21299800     13.06562500
H          12.32412300      9.19870200     11.91976700
          35
 Energy =     -0.43473400 a.u.  #Cluster:   13
C          10.23935700      7.23781400      9.34596100
C          10.48229200      7.95848000      8.18049400
C          11.03466700      9.25351300      9.93864900
N          10.58510700      8.05904200     10.41866000
H           9.85762100      6.24225900      9.47108700
H          10.33737900      7.68062500      7.15404600
H          11.38084200     10.11317800     10.52641300
C          10.41893700      7.75286400     11.82758500
H           9.69265600      8.46829700     12.29046700
H          10.04934900      6.72776700     11.98054000
H          11.38119300      7.87340900     12.37462800
N          10.98640600      9.19941900      8.56545700
C          11.22053100     10.35838700      7.70645000
H          11.84448900     10.04957400      6.83841400
H          11.81413600     11.11672600      8.28931400
C           9.91099300     11.01886300      7.22228900
H          10.15860300     12.06774300      6.93991600
H           9.55171200     10.52187000      6.30258100
C           8.78646600     11.04797400      8.25629300
H           8.23280200     10.09148500      8.27450800
H           8.03932700     11.82190800      7.99505000
C           9.29923700     11.36146300      9.66545100
O          10.21209000     12.19653500      9.78592300
O           8.81832100     10.67395600     10.59193000
P          10.82599200     11.53652400     13.23402100
O          11.52192400     10.24102600     13.14987100
O           9.25396400     11.46059900     13.10781400
H           9.01610600     11.15293400     12.09683000
O          11.08343500     12.18749200     14.66484100
H          10.58246200     13.09191900     14.67802600
O          11.34227400     12.63513100     12.21652200
H          10.85542700     12.50683000     11.27279300
O          13.41688300      9.09210400     11.28854700
H          14.27007700      9.51278400     11.36434700
H          12.88695900      9.49952300     11.99429800
          35
 Energy =     -0.43452000 a.u.  #Cluster:   14
C          11.67268000      7.61270800      9.54296900
C          11.74062100      8.61805200      8.58759600
C          10.00468700      9.07532900      9.94174500
N          10.58286000      7.90573000     10.36161600
H          12.31708100      6.76579600      9.71209200
H          12.44119100      8.75708000      7.78763800
H           9.12909800      9.56563800     10.42188400
C          10.21493200      7.20447200     11.57887100
H          10.85464900      6.31353300     11.73251600
H          10.37510500      7.86580500     12.46448600
H           9.15499600      6.89662200     11.55519500
N          10.69467700      9.51262300      8.84551600
C          10.56616400     10.81973400      8.19786600
H          11.32372500     10.88236300      7.38073600
H          10.86278900     11.61530000      8.93908000
C           9.17324400     11.11601400      7.62214200
H           9.26413400     12.06851900      7.04868800
H           8.89440500     10.33986900      6.88429800
C           8.04280100     11.28210500      8.63868000
H           7.52603100     10.32359900      8.82231600
H           7.26743800     11.96636800      8.24208000
C           8.53988100     11.86803000      9.96624000
O           9.14869800     12.93937700      9.97190500
O           8.32451200     11.13414100     10.97194100
P          11.36807800     11.34697900     12.25378800
O          11.67980400     10.16197700     11.43004000
O           9.97536600     11.32631500     12.97893400
H           9.18649600     11.31967900     12.19298800
O          12.45106900     11.46605200     13.41870600
H          12.23714000     12.32904100     13.94576700
O          11.49495400     12.72765200     11.47913900
H          10.58530800     12.91358500     10.96827400
O          12.99453700      7.60550500     11.99836000
H          12.62040200      8.48604000     11.82580300
H          13.69046900      7.76838400     12.63012300
