%nproc=16
%mem=10GB
#p M062X/6-311+G(2d,p) nosymm em=GD3 counterpoise=5

Title Card Required

0 1
C          11.37682800     15.13363200     12.41050100			 1
C          12.00708400     15.98047700     11.49530800       1
C          12.63955300     13.92936800     11.00368900       1
N          11.78698800     13.84184200     12.09520100       1
H          11.45726500     12.97889100     12.52226800       1
H          10.70941800     15.35021100     13.21720700       1
H          11.96735600     17.04848700     11.40931300       1
H          13.11935700     13.07617100     10.54176200       1
N          12.77794300     15.21850300     10.63049400       1
P          13.59503300     14.48538200      7.25340300       2
O          13.46903200     13.16635000      7.88922700       2
O          12.27160000     15.05679700      6.57698100       2
H          11.51801900     15.11009900      7.28952800       2
O          14.14604400     15.66732900      8.14964600       2
H          13.76975200     15.56684900      9.13667500       2
O          14.60563300     14.44388100      6.02875300       2
H          14.67149200     15.41087300      5.65970400       2
O          11.01567900     12.23100500      8.97854400       3
H          10.61860500     11.76011300      8.24560300       3
H          11.89643400     12.50788800      8.63744600       3
O          10.29907300     15.00738200      8.69814300       4
H          10.41001700     14.06726400      8.89644500       4
H          10.75685200     15.46393100      9.41259900       4
O          11.07684200     11.42189100     11.67340800       5
H          10.47507800     10.69801300     11.81134100       5
H          11.03303600     11.63738800     10.72682000       5     

