%nproc=24
%mem=50GB
#p M062X/6-311+G(2d,p) nosymm em=GD3 counterpoise=5

Title Card Required

0 1
P           9.33564300      7.02224300      9.42653500        1
O           8.62017000      8.06910200     10.17172300        1
O          10.71469600      6.53169200     10.03422400        1
H          10.95586100      7.11598100     10.88370000        1
O           8.43896500      5.71431400      9.32470500        1
H           8.97827600      5.01041700      8.79349200        1
O           9.65882500      7.33079000      7.90746200        1
H          10.52746100      7.92169100      7.84716800        1
O          11.87036000      9.04756600      7.75374900        2
H          12.40577400      8.95960100      8.54457100        2
H          11.46318900      9.93151900      7.83167600        2
O           8.07137000     10.66619200      9.18780000        3
H           8.26703800      9.75984300      9.51526700        3
H           7.47084300     10.53223600      8.45507600        3
O           8.02295300     12.17028200     11.57041400        4
H           7.99825700     11.72363400     10.70748000        4
H           7.11486800     12.33994200     11.80241500        4
O          10.62587100     11.48567000      8.27213200        5
H           9.73085100     11.23548000      8.55006500        5
H          11.01498000     11.91229400      9.03709300        5


