%nproc=24
%mem=50GB
#p M062X/6-311+G(2d,p) nosymm em=GD3 counterpoise=2

Title Card Required

0 1
C           4.48369000      5.43284400     11.48947500			 1
C           5.41592000      4.97754300     12.42329500       1
C           4.71533900      6.94020000     13.13345700       1
N           4.04300100      6.67472000     11.94995600       1
H           3.43236900      7.30598500     11.43784000       1
H           4.10814900      4.98380200     10.59537400       1
H           5.97839700      4.06489600     12.44175500       1
H           4.57642500      7.83688600     13.72087200       1
N           5.54735600      5.92048100     13.43116800       1
P           7.61549800      9.41780700     12.71068200       2
O           6.14747800      9.40299800     12.78679400       2
O           8.43155100      9.06886400     14.01295100       2
H           8.08808800      8.13171000     14.38650500       2
O           8.28214800      8.49175200     11.60856600       2
H           7.55877000      8.16036800     10.93745300       2
O           8.12120300     10.88796300     12.36108100       2
H           9.15083400     10.88278600     12.36193300       2   

