%nproc=24
%mem=50GB
#p M062X/6-311+G(2d,p) nosymm em=GD3 counterpoise=3

Title Card Required

0 1
P           9.12348400      7.01633900      8.18516700      1
O           9.61368400      6.20900300      9.30060600      1
O           7.90163700      7.89405200      8.69607300      1
H           7.64226800      8.65472500      8.04182500      1
O          10.12297400      7.95604700      7.40251100      1
H          10.41044100      8.77795200      8.01208300      1
O           8.56627400      6.09097800      7.00999100      1
H           8.52484000      6.64633700      6.14666700			1
O           7.11140600     10.24221600      7.38555800      2
H           7.89380500     10.78126200      7.16761100      2
H           6.85185700     10.55492500      8.26357100      2     
O           6.71101300     11.18254500     10.14418300      3
H           7.66715700     11.44222100     10.05575700      3
H           6.23457000     12.00153700     10.09009000      3




