%nproc=24                                                          
%mem=50GB                                                          
#p M062X/6-311+G(2d,p) nosymm em=GD3 counterpoise=2                
                                                                   
Title Card Required                                                
                                                                   
0 1        
C           6.28524400     11.37659600     12.55828000            1                                           
C           5.05399400     11.42225500     11.92319300            1
C           5.77244700     13.54387200     12.19181800            1
N           6.72526600     12.69748800     12.69371300            1
H           6.83925200     10.54070900     12.94804500            1
H           4.39507200     10.62761100     11.63803700            1
H           5.80722300     14.66090500     12.19121700            1
C           7.86268800     13.13486500     13.48580300            1
H           8.34528700     12.27551200     13.99165900            1
H           8.60412700     13.65902200     12.86017800            1
H           7.51263500     13.81564300     14.29960900            1
N           4.75584300     12.77428800     11.69151600            1
C           3.43369100     13.28473700     11.32064500            1
H           3.07490000     12.72906700     10.42698900            1
H           3.52908100     14.36185900     11.02314000            1
C           2.43890600     13.13405300     12.49603900            1
H           1.45583500     12.82199600     12.08934300            1
H           2.76289400     12.29840300     13.15814800            1
C           2.26151300     14.39986200     13.32300800            1
H           1.52784600     14.22873600     14.13081200            1
H           1.85111600     15.22343400     12.71461500            1
S           3.81003300     14.98951900     14.08434800            1
O           3.42864300     15.76466100     15.25503400            1
O           4.59602300     13.73881500     14.34985900            1
O           4.48397200     15.70839300     12.96275100            1
O           6.20302700     11.71159000     15.21494100            2
H           5.93331700     11.54763200     16.10971400            2
H           5.60012700     12.43849500     14.91756200            2

