%chk=PA.chk
%mem=60000MB
%nprocshared=16
#p opt freq B3LYP/6-311G** em=GD3BJ

Title Card Required

0 1
 P                 -0.64924115   -0.41315345    0.00000000
 O                 -0.07923129    0.39294085    1.39620941
 O                 -0.07926072   -2.02536383    0.00000000
 H                 -0.40047079   -2.47881631   -0.78281858
 O                 -2.35924115   -0.41313238    0.00000000
 H                 -2.67970808    0.12962531   -0.72409601
 O                 -0.07923129    0.39294085   -1.39620941
 H                  0.84079564    0.63731718   -1.27198919

 1 2 1.0 3 1.0 5 1.0 7 1.0
 2
 3 4 1.0
 4
 5 6 1.0
 6
 7 8 1.0
 8

