%nproc=22
%mem=50GB
#p M062X/6-311+G(2d,p) nosymm em=GD3 counterpoise=2

Title Card Required

0 1  
C          13.03428600     10.81702900      8.59199000				1
C          12.84356400     12.16892700      8.89803800        1
C          12.16506400     12.49693400     10.07140300        1
C          11.70045400     11.47748600     10.89831100        1
C          11.93192100     10.14729800     10.52178100        1
N          12.58674300      9.82829000      9.38986800        1
H          12.00070500     13.54088200     10.33706500        1
H          13.55928100     10.49751400      7.68444100        1
H          13.21671000     12.94286500      8.23446700        1
H          11.16821100     11.70159400     11.81830100        1
H          11.58635700      9.30233500     11.13849000        1
P          12.14129800      6.12561100      9.78923300        2
O          11.72261800      6.67405700     11.06933600        2
O          10.89542200      5.63967500      8.92877400        2
H          11.24226200      5.22091500      8.05681100        2
O          13.00756100      7.04352100      8.82386100        2
H          12.80870300      8.06035700      9.01861000        2
O          13.03379100      4.79540900      9.81391900        2
H          14.01505700      5.06930900      9.91531000        2



















