          11
 Energy =     -720.61548880 a.u.  Frame:     1 Step:     1 Geom:     1
P           5.61802900      5.19317000      5.26186100
O           5.53891200      6.65657800      5.46631500
O           6.31291700      4.40192700      6.43033900
H           6.68784800      5.03517100      7.09585200
O           4.19464700      4.50280700      5.01601400
H           3.49179400      4.95317600      5.50189500
O           6.43100600      4.67723900      3.99379900
H           6.08866900      5.02772800      3.16175800
O           6.96289600      6.58559600      7.86040700
H           7.83953500      6.97826600      7.92881100
H           6.51375000      7.02834400      7.11295100
          11
 Energy =     -720.61513430 a.u.  Frame:     2 Step:     2 Geom:     2
P           5.43605000      5.15798200      5.35640900
O           5.29323700      6.62296800      5.50834800
O           6.32887000      4.46404000      6.45100700
H           6.48007900      5.08548300      7.20899300
O           4.09870300      4.29638500      5.41315100
H           3.41709900      4.62545100      4.81345400
O           6.03772400      4.70709400      3.94391000
H           6.68320400      5.34345700      3.61084100
O           6.38429000      6.60857300      8.08356400
H           7.15649100      7.14001000      8.30320600
H           5.96425600      7.02855700      7.30711900
          11
 Energy =     -720.61470710 a.u.  Frame:     3 Step:     3 Geom:     3
P           5.37900600      5.21964900      5.30730000
O           5.14073000      6.66198600      5.48441700
O           6.51276200      4.63278800      6.25037300
H           6.74070800      5.29170500      6.95689600
O           4.06404200      4.35667500      5.54145900
H           4.19383400      3.40697900      5.42241600
O           5.80285000      4.71507200      3.84974100
H           6.64184200      5.08811000      3.55044900
O           6.79112800      6.87115400      7.71417000
H           6.41455200      7.05839000      8.58038700
H           6.14854600      7.19749300      7.05239200
          11
 Energy =     -720.61426400 a.u.  Frame:     4 Step:     4 Geom:     4
P           5.61914600      5.25166200      5.35525500
O           5.51398000      6.71736800      5.46057000
O           6.40824900      4.51758500      6.50530300
H           6.81212500      5.18481200      7.12017300
O           4.17774900      4.56390100      5.31617400
H           4.21185300      3.59939100      5.27450800
O           6.37451600      4.70760100      4.04962700
H           6.17377000      5.24321800      3.27125400
O           7.17581600      6.78576300      7.72067700
H           6.61306000      7.18794200      7.03000700
H           6.83974100      7.10075900      8.56645400
          11
 Energy =     -720.61433450 a.u.  Frame:     5 Step:     5 Geom:     5
P           5.32894800      5.18362600      5.42997000
O           4.91144200      6.56455900      5.72497500
O           6.59510500      4.70050800      6.25730000
H           6.74100900      5.30260000      7.03219300
O           4.16291800      4.13181500      5.67586800
H           4.43009600      3.21318500      5.54308200
O           5.72099100      4.84259200      3.91722200
H           6.45808300      5.37324500      3.58964000
O           6.45130700      6.71026500      8.04816400
H           5.79843300      7.04104300      7.39945500
H           7.09167100      7.41656100      8.18213100
          11
 Energy =     -720.61415470 a.u.  Frame:     6 Step:     6 Geom:     6
P           5.57889700      5.21001000      5.32107200
O           5.79940600      6.64864500      5.09358800
O           5.95953100      4.65501500      6.74636200
H           6.29122400      5.39527300      7.32040800
O           4.04816200      4.81542500      5.08479300
H           3.84895600      3.89694500      5.30840600
O           6.41529700      4.22043300      4.37636300
H           6.42224500      4.52137600      3.45849500
O           6.66873200      7.04326100      7.73457800
H           6.44726500      7.33867100      6.82958400
H           7.57028900      7.33494800      7.90635300
