%nproc=24
%mem=50GB
#p M062X/6-311+G(2d,p) nosymm em=GD3 counterpoise=3

Title Card Required

0 1
C           9.14547900      1.37950400     16.78606300         1
C           9.37376600      0.93320000     18.08456900         1
C           9.93245000      3.11143400     17.98871800         1
N           9.47998400      2.73095500     16.75541400         1
H           8.82103500      0.83391300     15.91337200         1
H           9.25378900     -0.05286600     18.50803000         1
H          10.30897300      4.10043700     18.26056400         1
C           9.37809400      3.60501700     15.60153600         1
H          10.23428800      4.31460200     15.55758100         1
H           9.41891900      3.01663500     14.65711800         1
H           8.43526200      4.17796100     15.62510900         1
N           9.85488300      2.01952200     18.81363400         1
C          10.24129000      1.99191200     20.22467600         1
H           9.36813700      1.63269000     20.81895200         1
H          10.46049500      3.03608600     20.56934000         1
C          11.46173200      1.08904200     20.47334700         1
H          11.44392400      0.74989500     21.52894600         1
H          11.39342700      0.15681000     19.86583900         1
C          12.78493800      1.79409500     20.18588700         1
H          13.63107000      1.21743700     20.61055100         1
H          12.82553200      2.79534100     20.65314800         1
C          12.97784400      1.89942800     18.67413800         1
O          12.63867200      2.98126300     18.12882500         1
O          13.41952000      0.90682200     18.07661400         1
O          11.29773700     -0.97045800     17.64729800         2
H          12.10654800     -0.47934100     17.86651200         2
H          11.16105700     -0.74961800     16.72148300         2   
O          11.66087000      4.91775300     19.63979400         3
H          12.23623600      5.67059900     19.60910600         3
H          12.12288400      4.21369700     19.10651100         3


