%nproc=24
%mem=50GB
#p M062X/6-311+G(2d,p) nosymm em=GD3 counterpoise=2

Title Card Required

0 1
C          11.50458200      8.18575600     11.44782500      1
C          12.02789900      9.40059700     11.87495600      1
C           9.78092900      9.54844600     11.93784900      1
N          10.11573900      8.29670000     11.50073100      1
H          12.01167300      7.30504300     11.08104900      1
H          13.05850700      9.72075500     11.94032800      1
H           8.76742500      9.93907900     12.04763600      1
C           9.15742800      7.28495900     11.09515900      1
H           8.54633300      6.94772700     11.94915300      1
H           8.46706500      7.68838800     10.31336300      1
H           9.66773200      6.40756500     10.64531800      1
N          10.94730100     10.23320300     12.17324800      1
C          11.02956600     11.64111200     12.56877900      1
H          11.56053000     11.69475400     13.54836100      1
H           9.99357300     12.03230900     12.73208300      1
C          11.76320300     12.51180300     11.52583100      1
H          12.32424400     13.30399900     12.06556100      1
H          12.55397200     11.91527000     11.01016900      1
C          10.84327200     13.16693700     10.50020200      1
H          11.42856000     13.83908000      9.84224500      1
H          10.09553700     13.81555000     10.99112800      1
S           9.98918200     11.95529300      9.48273300      1
O           9.33199700     12.62594400      8.35923500      1
O          11.04644400     10.99283700      9.05832400      1
O           9.02736500     11.32921400     10.44675500      1
P          11.17419400      7.66026200      7.66062000      2
O          12.30287600      7.44603400      8.56389200      2
O           9.81938800      7.18636900      8.33058200      2
H           8.98478200      7.69404800      7.95478000      2
O          10.90406000      9.12191600      7.10424600      2
H          11.04901600      9.83492400      7.87609500      2
O          11.33446800      6.81426500      6.32327500      2
H          10.62510000      7.13031300      5.64819200			2

     






