          42
 Energy =     -0.68905400 a.u.  #Cluster:    1
C           5.99950900      5.90048200     17.65057600
C           4.86876500      5.67518300     16.87516400
C           5.31105300      7.88362900     16.83459300
N           6.25969200      7.26936500     17.60522700
H           6.62565600      5.20569500     18.19141700
H           4.41209200      4.74507400     16.57918200
H           5.29344600      8.93332600     16.57084600
C           7.42245600      7.91363600     18.18528200
H           8.35574700      7.53925900     17.69177100
H           7.40088300      9.00666900     18.04482200
H           7.50954200      7.67929200     19.26502700
N           4.43289800      6.91873000     16.40775900
C           3.28643500      7.10888400     15.51568200
H           2.40753200      7.39924700     16.13762900
H           3.04871200      6.11715300     15.04395700
C           3.51581100      8.15708600     14.40693700
H           2.52406300      8.54919900     14.09389200
H           4.05949500      9.03967900     14.80514200
C           4.24072200      7.60735200     13.18347700
H           4.39873200      8.40575900     12.43547900
H           3.63770100      6.83608200     12.67268000
S           5.84187200      6.89243200     13.62813100
O           6.67185500      6.83133200     12.42536300
O           6.37256700      7.82427100     14.67443800
O           5.44564500      5.58281000     14.22730100
P           8.37781900      3.98480200     15.48604800
O           9.11725900      4.10737600     14.23769600
O           8.95037700      2.80940900     16.40212200
H           8.23923400      2.57654900     17.10571200
O           8.48134500      5.23230300     16.48429700
H           8.76229400      6.11488000     15.98942100
O           6.83329000      3.67198400     15.48796700
H           6.31313400      4.42000500     14.91315000
O           8.99037800      7.65482600     15.37632400
H           9.36394200      7.48138000     14.48508100
H           8.04581300      7.85439600     15.16817200
O           9.49737500      6.82365400     12.77140500
H           9.56710600      5.89866200     13.02467600
H           8.56690400      6.90124200     12.47733900
O           8.88641200      5.62682900     19.29870100
H           9.70101700      5.20008300     19.55317800
H           8.81342900      5.46000500     18.34697500
          42
 Energy =     -0.68634900 a.u.  #Cluster:    2
C           5.30027700      6.22791300     17.84688200
C           4.33044900      5.81963900     16.94040200
C           4.78371900      7.98876200     16.53754400
N           5.56625800      7.57035600     17.58147100
H           5.82791500      5.66098400     18.60092200
H           3.92613600      4.83887500     16.76468100
H           4.82930800      8.96632000     16.06795500
C           6.61544800      8.36241900     18.19585300
H           7.17565100      7.76465400     18.94553500
H           7.36543500      8.67996100     17.42662100
H           6.20792600      9.26130800     18.68511800
N           4.00015700      6.93058700     16.15630100
C           3.04811300      6.88406400     15.04373400
H           2.05032200      7.20132100     15.42811200
H           2.95678900      5.81319800     14.71753100
C           3.44198100      7.74847400     13.82911100
H           2.51530200      7.98782700     13.26363100
H           3.83748100      8.73390600     14.15527100
C           4.43308500      7.06839900     12.89123000
H           4.65273000      7.71804300     12.02393300
H           4.01412200      6.13901600     12.46794000
S           5.98601000      6.67794300     13.73488700
O           7.02633000      6.49942300     12.72227300
O           6.21154800      7.86572600     14.62361400
O           5.62961200      5.47332700     14.53781700
P           8.37886900      4.77063500     16.73949300
O           9.36073500      4.66503900     15.64935800
O           8.78434900      4.00978300     18.08651700
H           9.70189100      3.55057000     17.87751000
O           8.11503600      6.23593700     17.30009600
H           8.47262600      6.96129000     16.62012800
O           6.93558600      4.17820100     16.52531500
H           6.48351700      4.68417200     15.68702100
O           8.69233100      8.31499100     15.63177800
H           9.24161100      7.95045600     14.90476700
H           7.78774000      8.30163600     15.23635600
O           9.74195300      6.83896300     13.52586400
H           9.78507200      6.04867600     14.07407800
H           8.88355500      6.74340000     13.06679300
O          11.32968600      2.85850000     17.12687300
H          11.63235500      3.68910000     16.73779200
H          10.94099300      2.38621300     16.38193200
          42
 Energy =     -0.68569800 a.u.  #Cluster:    3
C           5.20135200      6.01072100     17.72442900
C           4.22580000      5.82186000     16.75339300
C           4.80444700      7.99904000     16.74045500
N           5.54657200      7.36075100     17.69811900
H           5.68207200      5.29182300     18.37343300
H           3.77429100      4.91014100     16.40306500
H           4.89818800      9.04129000     16.45912300
C           6.62758900      7.97151200     18.44876700
H           7.13729100      7.22148300     19.09091200
H           7.40827400      8.36754500     17.75266100
H           6.26365700      8.79653100     19.08160400
N           3.96948900      7.06916600     16.17512200
C           3.03425500      7.28185500     15.06883200
H           2.08203200      7.68304700     15.48866100
H           2.80404900      6.28135100     14.61627900
C           3.56181000      8.22437300     13.96813600
H           2.68677900      8.62894400     13.41474100
H           4.05406300      9.11557400     14.41358200
C           4.50179800      7.54218600     12.98186300
H           4.79486400      8.24430800     12.17911400
H           4.00751300      6.69778800     12.47109100
S           6.00206300      6.93492700     13.79425500
O           7.03944800      6.79574500     12.77147900
O           6.30482200      7.98483700     14.81974200
O           5.54301900      5.67307400     14.44462800
P           8.26582700      4.56062300     16.52901400
O           9.24318700      4.50182800     15.43164800
O           8.61532200      3.64148600     17.79063600
H           9.46806300      3.10244300     17.51179100
O           8.08622700      5.97184200     17.23851100
H           8.51074700      6.74036500     16.64544400
O           6.78991200      4.08205500     16.25444600
H           6.36528700      4.70502200     15.48524400
O           8.83868300      8.15811300     15.80991700
H           9.34589400      7.83516200     15.03392700
H           7.92870100      8.25541800     15.44267700
O           9.77163300      6.85558900     13.54186000
H           9.76488800      6.01076700     14.00352900
H           8.90099400      6.86967400     13.09529100
O          10.99475300      2.30773000     16.65479400
H          10.54946300      1.92387600     15.89183100
H          11.35489000      3.13814000     16.31598500
          42
 Energy =     -0.68519700 a.u.  #Cluster:    4
C           5.29322900      6.07963300     17.72645100
C           4.30408700      5.78443000     16.79672100
C           4.79153400      7.97707900     16.61917200
N           5.58191800      7.43726700     17.59793200
H           5.81802200      5.42783100     18.41117600
H           3.88194800      4.83364700     16.52260300
H           4.83260700      9.00064800     16.26567000
C           6.65329700      8.14175000     18.27678400
H           6.26151700      8.92747300     18.94185700
H           7.27289700      7.43690000     18.87605700
H           7.34736700      8.60507000     17.53361100
N           3.98309500      6.97704500     16.14043300
C           3.01966500      7.07633300     15.04285000
H           2.07016300      7.49922400     15.44762100
H           2.79532000      6.03752800     14.68558000
C           3.50719800      7.92639900     13.85202300
H           2.61437100      8.24753400     13.27279600
H           3.97188800      8.87185700     14.20659900
C           4.46172300      7.18564300     12.92400600
H           4.70506900      7.80967900     12.04365400
H           4.00024500      6.26875600     12.51834500
S           6.00672200      6.74040700     13.75806600
O           7.03547700      6.57426700     12.73039400
O           6.26174100      7.89205500     14.68283700
O           5.63611100      5.51580300     14.52462400
P           8.46825400      4.75129600     16.62827600
O           9.43075500      4.66193800     15.52006300
O           8.89708400      3.96950100     17.95624300
H           9.75942500      3.43623200     17.69720700
O           8.20318900      6.20295200     17.21951300
H           8.57197700      6.94492200     16.55713200
O           7.02432900      4.15420800     16.42340100
H           6.54266900      4.68625400     15.62154100
O           8.79317400      8.30101800     15.60419600
H           9.30802700      7.94809900     14.84616100
H           7.87326000      8.31081400     15.24829900
O           9.76988100      6.87750900     13.43042300
H           9.82892000      6.07583400     13.96028100
H           8.89204600      6.79641800     13.00538500
O          11.28740600      2.61860700     16.86446900
H          10.83952800      2.12534000     16.16959100
H          11.58287500      3.42481000     16.41999100
          42
 Energy =     -0.68210100 a.u.  #Cluster:    5
C           5.03600400      6.02760000     17.85648400
C           4.11698900      5.74972400     16.85071900
C           4.73336600      7.92185300     16.65648000
N           5.39701100      7.37804500     17.73365000
H           5.49175900      5.35184500     18.57507300
H           3.65451000      4.80885800     16.59614300
H           4.87896800      8.92207300     16.25369100
C           6.37567800      8.07582500     18.56581700
H           6.13618800      7.98613200     19.63643500
H           7.40928800      7.61347200     18.40348300
H           6.47817000      9.13706900     18.29345500
N           3.92428400      6.93332100     16.11411500
C           3.08010700      7.05944400     14.90303800
H           2.14730500      7.60582800     15.18414000
H           2.77226800      6.03217000     14.58593600
C           3.76997400      7.78290500     13.73145000
H           2.97325300      8.12464600     13.03320400
H           4.26544300      8.71684400     14.08510400
C           4.77047500      6.93491200     12.96006800
H           5.04071800      7.44213900     12.00897500
H           4.31709700      5.97944500     12.62706600
S           6.23063400      6.62201700     13.92135500
O           7.39271900      6.54770900     13.00894700
O           6.37495200      7.78846700     14.86147500
O           5.95009500      5.36585200     14.66256900
P           8.66834800      5.32351400     17.01183800
O           9.35905000      4.95091600     15.65939600
O           9.34909900      4.38173700     18.15040900
H           9.82563100      3.52271700     17.76576700
O           8.64451500      6.78703700     17.37610500
H           9.01932700      8.10446900     16.37246800
O           7.13748900      4.73034900     16.96537400
H           6.67076800      4.74090200     16.02730600
O           8.85791700      8.56261000     15.48285900
H           9.42921200      7.65211200     14.55750100
H           7.86394000      8.44616800     15.33985000
O           9.80477100      6.76971600     13.97828100
H           9.69181500      5.91159300     14.75554500
H           9.01891600      6.57180800     13.34338300
O          10.32834300      2.73167600     16.35816800
H          10.53769600      3.52266400     15.79114300
H           9.53591600      2.36182300     15.95576900
          42
 Energy =     -0.68057900 a.u.  #Cluster:    6
C           5.04453300      8.55563700     17.83471200
C           4.07483100      8.61894600     16.84432800
C           5.06676300      6.59594600     16.72248400
N           5.64079300      7.29545200     17.74853900
H           5.34485300      9.29327900     18.55600300
H           3.40502000      9.41607800     16.58453300
H           5.31013600      5.56970900     16.40850700
C           6.77181000      6.86878500     18.55260800
H           6.80618500      5.76438700     18.66884300
H           7.72934300      7.16695300     18.05211500
H           6.75034100      7.32386000     19.55519900
N           4.09075500      7.39277500     16.17403600
C           3.35388600      7.11349500     14.93999100
H           2.28184400      7.36604800     15.10134600
H           3.39226200      6.01122900     14.72773700
C           3.93434900      7.92624400     13.75952400
H           3.10492400      8.44299800     13.23510200
H           4.58808000      8.74290200     14.14430300
C           4.71122500      7.07973200     12.76171500
H           5.10337700      7.71679700     11.94499800
H           4.05107800      6.34488100     12.26469100
S           6.09340300      6.18826800     13.51283000
O           7.16632800      6.13888900     12.52444900
O           6.46877900      6.96921700     14.75215000
O           5.48847300      4.90776800     13.96511600
P           8.07227500      3.76682700     16.02870500
O           9.04535100      3.66008300     14.95070000
O           8.52810700      3.18221500     17.44185600
H           8.99517900      4.00410400     17.90769400
O           7.73899500      5.26155700     16.51447900
H           7.42661700      5.90276300     15.77949600
O           6.65627300      3.09298100     15.81721900
H           6.21031200      3.61123300     14.99985200
O           8.99793100      7.65213300     15.93812700
H           8.08648900      7.61242600     15.59949200
H           9.49236500      7.28359400     15.17818900
O           9.87165400      6.32776600     13.57826000
H           9.87106500      5.42486700     13.91325600
H           9.03860400      6.36222100     13.06971400
O           9.81044100      5.91003500     18.22416800
H          10.74353800      5.81522400     18.04506600
H           9.48144300      6.42970700     17.45790300
          42
 Energy =     -0.68040800 a.u.  #Cluster:    7
C           4.78693400      6.05499100     17.82711900
C           3.88055300      5.95508400     16.77712800
C           5.01213600      7.88333900     16.52691900
N           5.46685700      7.26011900     17.66171700
H           5.01258600      5.35554300     18.61763300
H           3.21211800      5.15376500     16.52229400
H           5.42282600      8.80034700     16.10607800
C           6.56566300      7.73611500     18.48343200
H           7.31901000      8.27607000     17.86741900
H           6.20152300      8.40029100     19.28453600
H           7.11606800      6.88196000     18.94192400
N           4.02376200      7.10388700     15.99181000
C           3.24442600      7.34014000     14.77204700
H           2.24060400      7.71922600     15.07765600
H           3.08565200      6.34344500     14.27200000
C           3.89235800      8.31537400     13.77084700
H           3.07827400      8.84965200     13.23343100
H           4.45274000      9.11631000     14.29634400
C           4.79148400      7.63174700     12.74689900
H           5.23335500      8.37883900     12.06153300
H           4.21461900      6.94477600     12.10286600
S           6.12991400      6.69909100     13.53086600
O           7.17175000      6.48883200     12.53270600
O           6.55004500      7.57567600     14.68544700
O           5.43823500      5.49389500     14.07088700
P           7.84380700      4.75653200     16.47287100
O           8.59456000      4.07676700     15.42147600
O           8.24411700      4.40007100     17.97611900
H           9.26011300      4.68610600     18.04498300
O           8.07245200      6.34365600     16.52775200
H           7.51663000      6.85061700     15.79373400
O           6.27379400      4.54898000     16.50838400
H           5.92160100      4.74488200     15.50674000
O          10.80589500      7.12423300     15.68307100
H           9.89497700      7.15839700     15.99667900
H          10.69367000      6.74384600     14.78877800
O           9.94498400      5.83069300     13.26101400
H           9.65126500      5.08533600     13.79445000
H           9.10831400      6.15433600     12.87808900
O          11.06765200      5.26254000     17.87174500
H          11.05443900      5.95152700     17.17544500
H          11.52824800      4.53297800     17.45717000
          42
 Energy =     -0.67907400 a.u.  #Cluster:    8
C           4.55945100      8.34217400     17.91523100
C           3.64865600      8.36081900     16.86828500
C           4.83837900      6.45051700     16.72316000
N           5.27931400      7.14928000     17.81378500
H           4.74073500      9.06851500     18.68549200
H           2.92246400      9.10383600     16.59881200
H           5.20441000      5.47206600     16.38052000
C           6.36736900      6.76535100     18.69532200
H           6.56613500      5.67091500     18.64541000
H           7.31497900      7.26731300     18.38574000
H           6.14791900      7.03219200     19.74170400
N           3.82151400      7.17435400     16.15053400
C           3.16980800      6.86688700     14.87560800
H           2.07235500      7.01027600     14.99481400
H           3.32649900      5.78062400     14.63561400
C           3.71748100      7.76410500     13.74238200
H           2.86511800      8.20872800     13.18960300
H           4.26807000      8.63146600     14.17487900
C           4.61943700      7.02115200     12.76761100
H           4.96996200      7.70770700     11.97254000
H           4.06546900      6.22375700     12.23933000
S           6.06526800      6.28114000     13.56732600
O           7.17169900      6.38547600     12.62299000
O           6.26649900      7.05727600     14.84558300
O           5.59975200      4.92100900     13.96403100
P           8.26661100      4.33250700     16.18196400
O           9.16950700      4.12794100     15.05495400
O           8.77777300      3.83810100     17.60631500
H           9.63830000      4.42740200     17.78749100
O           7.98323600      5.87112100     16.54561000
H           7.38201100      6.36707500     15.84922200
O           6.83331400      3.65947400     16.10944400
H           6.42011000      3.93512500     15.16060400
O          10.33031800      7.61026500     16.00815800
H           9.45219000      7.30174700     16.25814900
H          10.35995400      7.37696900     15.05741900
O           9.98345500      6.55134700     13.37082300
H           9.94218300      5.66501200     13.74515600
H           9.08553700      6.65211500     13.00009100
O          11.16118900      5.57175200     17.84541400
H          10.93336500      6.33325600     17.27230900
H          11.85221400      5.12186400     17.36059800
          42
 Energy =     -0.67903100 a.u.  #Cluster:    9
C           4.37855900      8.12615300     18.00586900
C           3.52170300      8.28954900     16.92592000
C           4.65391800      6.36126300     16.63261900
N           5.06190400      6.92369000     17.81034800
H           4.54555200      8.76003700     18.85633200
H           2.83572600      9.08458200     16.70357500
H           5.01130000      5.41417500     16.18879900
C           6.08441400      6.39835300     18.69632400
H           7.06188400      6.90157400     18.50285700
H           5.81148800      6.54103300     19.75387400
H           6.25238000      5.31098300     18.52014700
N           3.69111600      7.17903300     16.09561700
C           3.07241600      7.01021300     14.77963400
H           1.98934200      7.25298700     14.86152300
H           3.13824900      5.92866800     14.48211200
C           3.75615400      7.90842900     13.72575400
H           2.97599000      8.42470500     13.13002800
H           4.32485500      8.72476000     14.22892600
C           4.67790700      7.13758900     12.79299400
H           5.10241200      7.81722100     12.02823200
H           4.12256800      6.37117100     12.22301500
S           6.04730900      6.32811300     13.65807300
O           7.15570800      6.29195300     12.71120200
O           6.29850300      7.14524700     14.89840200
O           5.47248700      5.03217700     14.13126700
P           8.33150200      4.45873100     16.23501800
O           9.09002500      4.12083200     15.03847200
O           8.94020400      4.00184700     17.63216500
H           9.84219700      4.54982200     17.71099500
O           8.15873600      6.02460300     16.53079900
H           7.47611900      6.49253600     15.88781200
O           6.85589500      3.86621300     16.33740300
H           6.40859900      4.01783000     15.38893700
O          10.59916000      7.54373100     15.68602700
H          10.56745700      7.23087100     14.75688700
H           9.71106200      7.33094600     15.99477600
O          10.01798000      6.35127300     13.17292900
H           9.98099700      5.48569300     13.59444800
H           9.08823900      6.47355700     12.89797400
O          11.35843900      5.73287800     17.72248400
H          11.45752300      6.35937100     18.43183400
H          11.23202700      6.29562100     16.92762800
          42
 Energy =     -0.67849400 a.u.  #Cluster:   10
C           4.67114100      5.51079000     17.69305200
C           3.77188500      5.66959600     16.64420800
C           4.97129500      7.56554100     16.81260800
N           5.39297600      6.69904400     17.78958500
H           4.86459100      4.65185600     18.31739800
H           3.07894300      4.96566400     16.22203200
H           5.41946800      8.53485800     16.59628300
C           6.49719300      6.95256000     18.69754300
H           6.14781900      7.45735100     19.61375000
H           7.00260100      6.00081500     18.97944100
H           7.27765300      7.57561600     18.20667800
N           3.96078000      6.95426900     16.12343000
C           3.20268800      7.47341900     14.98037400
H           2.20938600      7.81386000     15.35708300
H           3.01595900      6.61337200     14.27740800
C           3.89561600      8.61637900     14.21453400
H           3.10661100      9.27724300     13.79295800
H           4.46964500      9.27058600     14.90285700
C           4.79172200      8.13422600     13.08000200
H           5.27038800      8.99262900     12.57372700
H           4.20665200      7.61829900     12.29854200
S           6.08756200      7.00949900     13.66221100
O           7.11753700      6.96077600     12.62954400
O           6.53948700      7.62050800     14.96348300
O           5.34283800      5.75128000     13.95148900
P           7.74380200      4.43527100     16.10949100
O           8.41223500      3.93848500     14.91182600
O           8.17478200      3.74951100     17.48611900
H           9.11212100      4.19128600     17.70177800
O           8.04342500      5.95858000     16.50389400
H           7.54263300      6.63717100     15.88411700
O           6.16400200      4.29133600     16.15031000
H           5.80357300      4.68859900     15.21842700
O          11.58323200      6.02827500     15.20574300
H          10.89029100      6.12190200     14.51820400
H          12.14541600      5.33982900     14.85911700
O           9.77536400      5.84709900     13.02155600
H           9.38243500      5.08673800     13.46373000
H           8.98716900      6.37156000     12.78272200
O          10.58052900      5.44620800     17.83599800
H          10.99017500      5.53476900     16.94980900
H          10.01639300      6.22335400     17.86696300
          42
 Energy =     -0.67814700 a.u.  #Cluster:   11
C           5.68116300      7.80719100     17.51053500
C           5.06690900      8.16963600     16.31006400
C           4.35672300      6.11180600     16.86986300
N           5.20451200      6.54766200     17.84989900
H           6.43973300      8.32153200     18.07633300
H           5.22568000      9.04890100     15.70508600
H           3.92418600      5.12332100     16.79164300
C           5.56610000      5.80309000     19.04175700
H           6.61354300      6.03314900     19.34888800
H           4.88746100      6.04627200     19.87677800
H           5.54379300      4.70556800     18.85992200
N           4.23418900      7.12091200     15.94187500
C           3.33237700      7.04884700     14.78651200
H           2.33737000      7.43741100     15.10931600
H           3.19317900      5.96771800     14.51170800
C           3.82208400      7.83236000     13.55241000
H           2.93286600      8.21993200     13.01099300
H           4.38780900      8.73971200     13.85820800
C           4.66325200      6.99492300     12.59676300
H           5.00399800      7.60704800     11.74153000
H           4.07447500      6.17182600     12.15603400
S           6.10796500      6.29535500     13.43199600
O           7.10117500      5.96945900     12.41635200
O           6.53347400      7.37242000     14.38862800
O           5.51646700      5.15951500     14.21188600
P           8.04751400      5.01414700     16.54955300
O           8.93880200      4.42421700     15.55419100
O           8.48604100      4.82435100     18.07584400
H           9.43566400      5.28491200     18.12625700
O           7.92923500      6.60752900     16.52231400
H           7.40757700      6.94884800     15.66121300
O           6.56008400      4.46506100     16.59035300
H           6.16970900      4.57436500     15.58438800
O          10.55435600      7.74699400     15.53840100
H           9.64341200      7.71588500     15.85076600
H          10.49720600      7.27113600     14.68730100
O           9.96261800      6.08517100     13.21021800
H           9.81909100      5.37491700     13.84339400
H           9.08823900      6.15934400     12.78639300
O          11.12532600      6.14786100     17.88059500
H          11.69521800      5.47324600     17.51087700
H          10.98943100      6.76645800     17.13299100
          42
 Energy =     -0.67796700 a.u.  #Cluster:   12
C           4.77033600      6.01823000     17.77352900
C           3.87141000      5.96684800     16.71312200
C           4.95023800      7.93799700     16.60509500
N           5.42506400      7.24523800     17.69038800
H           5.00159100      5.27611700     18.52398900
H           3.23376900      5.16260700     16.39278800
H           5.30788600      8.90813200     16.27550200
C           6.53323900      7.67630600     18.52406300
H           7.30755200      8.19676200     17.91628700
H           6.18799100      8.34336200     19.33079900
H           7.05348500      6.79939400     18.97424100
N           3.98470900      7.17107100     16.01234100
C           3.20785200      7.47990600     14.80836700
H           2.24161700      7.93510600     15.12994300
H           2.96491800      6.50524400     14.30057600
C           3.92271000      8.40864700     13.80806900
H           3.14855100      8.99435600     13.26581500
H           4.53474500      9.17029400     14.33507700
C           4.77903400      7.66172700     12.79287900
H           5.25894700      8.37316800     12.09485500
H           4.16449700      6.99727500     12.16029700
S           6.06992000      6.67065700     13.58595600
O           7.10448800      6.42303400     12.58821300
O           6.52444500      7.52136900     14.74545400
O           5.32768900      5.49266200     14.12029000
P           7.79528000      4.66020900     16.46728100
O           8.54726500      4.01509000     15.39510200
O           8.20024200      4.25944900     17.95818600
H           9.21298400      4.55341700     18.03511900
O           8.00915800      6.24551500     16.57127400
H           7.46237700      6.77097700     15.83926800
O           6.22729700      4.43395400     16.49868200
H           5.86318600      4.67630700     15.51396000
O          10.73553400      7.06552900     15.73038800
H           9.82517500      7.08574000     16.04675200
H          10.62432600      6.70292900     14.82846100
O           9.89053600      5.81109300     13.28241300
H           9.61315800      5.04657800     13.79729200
H           9.04445200      6.12603000     12.91216100
O          11.01937900      5.15375200     17.87283700
H          10.99687800      5.85880400     17.19303200
H          11.48610100      4.43912500     17.43988800
          42
 Energy =     -0.67597900 a.u.  #Cluster:   13
C           4.74766900      5.62538800     17.76483600
C           3.84775400      5.74901400     16.71106500
C           4.96145000      7.69496900     16.89483400
N           5.42400100      6.83953300     17.86305300
H           4.96432800      4.77651600     18.39706300
H           3.19687100      5.01289900     16.27432900
H           5.33802000      8.69601200     16.71102800
C           6.53826900      7.12397800     18.74913500
H           7.03333500      6.18082700     19.07445500
H           7.32358300      7.70806300     18.21844900
H           6.20527700      7.68048700     19.64082200
N           3.98106800      7.04276300     16.19884900
C           3.20895800      7.54315700     15.05787000
H           2.25162800      7.96204800     15.44761100
H           2.94857700      6.66066900     14.40949100
C           3.94157000      8.59852700     14.20736700
H           3.17835600      9.26839200     13.75445900
H           4.56138100      9.26555000     14.84211200
C           4.79225400      7.99541000     13.09707500
H           5.28930300      8.79283800     12.51405700
H           4.17234700      7.44101000     12.37101000
S           6.06369500      6.87452000     13.73922900
O           7.07421100      6.73650900     12.69494000
O           6.55309200      7.55058900     14.99211900
O           5.29260200      5.65561400     14.11854600
P           7.80018900      4.44301800     16.26509300
O           8.46852400      3.91733000     15.07969500
O           8.26001900      3.81488900     17.65982600
H           9.18698800      4.28788100     17.85144700
O           8.06069900      5.98530000     16.60455000
H           7.55265300      6.63022200     15.95025000
O           6.22514500      4.25636900     16.32457500
H           5.83948700      4.62498300     15.39333800
O          11.59421500      6.08497300     15.25075400
H          10.89261200      6.12969600     14.56695900
H          12.17242700      5.39828400     14.92758200
O           9.77244500      5.75335400     13.09559200
H           9.40822600      5.00500600     13.58093700
H           8.96327300      6.23801800     12.84220100
O          10.63127800      5.58858200     17.91537500
H          11.03139400      5.65011600     17.02274200
H          10.04084000      6.34670500     17.91530700
