%chk=TMABA.chk
%mem=200GB
%nprocshared=22
#p opt freq b3lyp/6-311g(d,p) em=gd3bj

Title Card Required

0 1
 C                 -3.26813900   -0.05003300    0.83084100
 H                 -4.17193000   -0.00981400    0.22373200
 H                 -3.24260600   -0.97713800    1.40034700
 H                 -3.23749800    0.79959800    1.51033600
 C                 -2.09633100   -1.16626900   -0.99929300
 H                 -3.03392100   -1.14898000   -1.55355000
 H                 -1.25316400   -1.09531400   -1.67934200
 H                 -2.01874300   -2.08284700   -0.41746500
 C                 -2.08751800    1.27874200   -0.84540900
 H                 -1.99964100    2.11429000   -0.15350800
 H                 -1.24657500    1.28619100   -1.53184900
 H                 -3.02663800    1.33949900   -1.39397000
 C                 -0.79163100   -0.05784200    0.82366000
 H                 -0.88902500   -0.98092300    1.39827900
 H                 -0.88079200    0.79116700    1.50406900
 C                  0.50998000   -0.01555700    0.06072700
 H                  0.60588700    0.90903500   -0.51623800
 H                  0.60148900   -0.86483600   -0.62296600
 C                  1.72503200   -0.06752800    0.98794800
 H                  1.74135200   -1.00284600    1.55514200
 H                  1.72749700    0.79336300    1.66332200
 N                 -2.06779400    0.00176200   -0.05978700
 C                  2.96266800    0.00764200   -0.01647800
 O                  3.27906900    1.18270200   -0.33143600
 O                  3.35524400   -1.11491600   -0.42104100

