%nproc=24
%mem=10GB
#p M062X/6-311+G(2d,p) nosymm em=GD3 counterpoise=5

Title Card Required

0 1
C          15.43061500      7.96442400     16.99094900       1
C          16.77900600      8.12686200     16.65396500       1
C          17.13381900      8.12439800     15.30543600       1
C          16.14345200      7.96280700     14.33982100       1
C          14.81529200      7.80536400     14.75840300       1
N          14.47077800      7.80479300     16.05982100       1
H          18.17588100      8.24854300     15.01144300       1
H          15.09118400      7.96097000     18.03299900       1
H          17.52996300      8.25216100     17.42811900       1
H          16.38905400      7.95805200     13.28174000       1
H          13.99144700      7.67632800     14.03863200       1
P          10.84839800      8.33786800     15.43478600       2
O          11.47767200      8.57829700     14.13203000       2
O          10.50664000      9.62578700     16.30659400       2
H          10.02430700     10.32810300     15.70885800       2
O           9.48539200      7.53755200     15.29476800       2
H           9.19086900      7.22598400     16.24445200       2
O          11.65515200      7.47856900     16.49746100       2
H          12.68801500      7.69925000     16.39355400       2
O           9.19864200     11.52378700     14.59819300       3
H           8.40120300     11.12273300     14.25462300       3
H           9.82566200     11.49485600     13.84955200       3
O          11.06753300     11.05946600     12.59986500       4
H          11.88215500     11.50129800     12.83930100       4
H          11.18409800     10.15302400     12.93540200       4
O           8.94114400      6.77488200     18.08140400       5
H           9.81123800      6.37348400     18.18707900       5
H           9.03140100      7.65036900     18.47077500       5    



