%mem=100GB
%nprocshared=24
#p opt freq b3lyp/6-311+g(2d,p) scrf=(smd,solvent=water) em=gd3bj

Title Card Required

0 1
 C                 -1.79254900   -1.57776300   -0.48197000
 C                 -2.76045200   -1.19856200   -1.38971100
 C                 -3.48492600   -0.03827000   -1.16702300
 C                 -3.23838000    0.74216600   -0.03334700
 C                 -2.25735700    0.30813500    0.83753000
 H                 -4.24731500    0.26967200   -1.87228900
 H                 -1.19029600   -2.46648200   -0.59581300
 H                 -2.93464600   -1.81461300   -2.26050200
 H                 -2.00082400    0.85139300    1.73633800
 C                 -4.00387200    2.00258400    0.23755700
 H                 -3.66849000    2.48254100    1.15655200
 H                 -3.87945400    2.70572200   -0.58906900
 H                 -5.07100100    1.78617100    0.32608700
 N                 -1.56317200   -0.82803400    0.61100100
 C                 -0.46885800   -1.19666500    1.54916000
 H                 -0.84647100   -1.03837300    2.55741900
 H                 -0.27403900   -2.25834700    1.41215400
 C                  0.78719100   -0.36263600    1.31470100
 H                  0.54787300    0.69576300    1.43519400
 H                  1.49194600   -0.63150600    2.10369100
 C                  1.41611500   -0.61273200   -0.04932700
 H                  0.75854300   -0.32395300   -0.87038200
 H                  1.69592900   -1.65957400   -0.17716300
 S                  2.92837100    0.34036900   -0.30182300
 O                  3.41145900   -0.03864100   -1.65095500
 O                  3.86457000   -0.06099800    0.77558900
 O                  2.53960200    1.76893700   -0.21406700

