%nproc=24
%mem=50GB
#p M062X/6-311+G(2d,p) nosymm em=GD3 counterpoise=5

Title Card Required

0 1
P          13.29394600      6.64332400     10.56512800         1
O          13.72668300      7.61447700     11.58271300         1
O          11.81458400      6.15797500     10.81170900         1
H          11.70201900      5.19720800     10.37597900         1
O          13.32466300      7.34570800      9.13664500         1
H          13.60102600      6.68425800      8.37403600         1
O          14.13415300      5.29787700     10.52712600         1
H          14.85601800      5.29150300      9.74154500         1
O          12.63055400      3.77484700      7.16328000         2
H          13.35526500      4.43895900      7.22028400         2
H          12.00927000      4.16888200      6.55667300         2 
O          13.97203800     10.46302900     10.99969100         3
H          13.86898800      9.52369000     11.24225500         3
H          13.07828900     10.75450100     10.82049300         3  
O          11.64174000      3.56315800      9.73458100         4
H          12.40923700      3.18788100     10.17331900         4
H          11.92195500      3.61870800      8.79544000         4
O          15.20242900      9.61978800      8.58330500         5
H          14.61543800      8.85910000      8.49820000         5
H          14.82947700     10.07934000      9.35231100         5 



