%nproc=24
%mem=50GB
#p M062X/6-311+G(2d,p) nosymm em=GD3 counterpoise=5

Title Card Required

0 1
P           3.91686600     15.93243200      9.54404500       1
O           3.97135700     15.05029300      8.37375500       1
O           3.72317500     17.44444200      9.13280200       1
H           3.72970700     18.04407100      9.99328000       1
O           2.79495300     15.68000900     10.63186100       1
H           2.60158800     14.63267500     10.66219000       1
O           5.20827100     15.90236100     10.49051500       1
H           6.07249600     15.83605700      9.92552500       1
O           6.21126600     15.42139600      6.50742500       2
H           5.40866000     15.16803600      6.99810900       2
H           6.01170600     16.29887700      6.17800800       2
O           4.55221600     17.06812700     13.17033100       3
H           3.69646900     16.62887900     13.21732000       3
H           4.99808500     16.60578700     12.44342800       3
O           3.96791700     19.15335800     11.42218100       4
H           4.12131500     18.50285400     12.13466200       4
H           4.79693000     19.62080600     11.34313100       4
O           7.56851800     15.60297200      8.92511000       5
H           7.88507500     14.71167000      9.05913000       5
H           7.19812600     15.59288700      8.01960200       5

