%nproc=24                                                        
%mem=50GB                                                        
#p M062X/6-311+G(2d,p) nosymm em=GD3 counterpoise=2              
                                                                 
Title Card Required                                              
                                                                 
0 1 
C           3.58768600     10.50464200      6.93229400           1                                                 
C           4.12742800      9.42563500      7.61991900           1
C           2.55738200     10.37208900      8.93086900           1
N           2.61420200     11.07100100      7.75791300           1
H           3.82651000     10.89369500      5.96021900           1
H           4.90250100      8.74071000      7.33106000           1
H           1.90946200     10.60307700      9.80492400           1
C           1.87615000     12.28794900      7.47098100           1
H           0.92062900     12.32313900      8.03939500           1
H           2.45764600     13.17873100      7.81191500           1
H           1.65990200     12.38317700      6.39542400           1
N           3.46807700      9.34761100      8.84907000           1
C           3.86251500      8.47199600      9.95819800           1
H           3.99587400      7.43951000      9.56824400           1
H           3.03077700      8.44248700     10.71189600           1
C           5.15586600      8.98366600     10.63109700           1
H           5.74740000      8.12135400     10.99093700           1
H           5.79261700      9.50932500      9.88842100           1
C           4.86240300      9.93732100     11.79089400           1
H           5.77488100     10.47020200     12.10970100           1
H           4.47500000      9.40410600     12.67570200           1
C           3.82730800     10.95835100     11.30520600           1
O           2.64684600     10.80327500     11.66926300           1
O           4.18950000     11.79294500     10.45125800           1
O           1.78756100     12.99989500     10.17706300           2
H           2.74871500     12.76085000     10.22297800           2
H           1.47516600     12.64326800     11.01517100           2


