%nproc=16
%mem=10GB
#p M062X/6-311+G(2d,p) nosymm em=GD3 counterpoise=3

Title Card Required

0 1
C          18.47173300      9.64128000      1.23101300				 1
C          17.62885200      9.97707400      2.29018100         1
C          19.23475500      8.73238100      3.14053000         1
N          19.48887400      8.85254600      1.77494600         1
H          20.24662600      8.45616400      1.26782800         1
H          18.42561400      9.89053400      0.19287400         1
H          16.72906000     10.57078500      2.30022900         1
H          19.85361200      8.17688000      3.82365900         1
N          18.11747400      9.40763300      3.45588900         1
P          15.18329100     10.27621900      5.69556300         2
O          14.26440600      9.17080900      5.93726900         2
O          15.10375000     10.93209500      4.23317500         2
H          14.17666700     10.74921200      3.82926700         2
O          14.88647000     11.48217000      6.69487700         2
H          15.62382300     12.18763900      6.58644600         2
O          16.73648100     10.05642600      5.88207400         2
H          17.15054600      9.71125800      4.96464600         2
O          12.39699300     10.15197000      3.36215800         3
H          12.54636500      9.22605800      3.58657900         3
H          11.90462400     10.50087800      4.11079700         3

