%nproc=24
%mem=50GB
#p M062X/6-311+G(2d,p) nosymm em=GD3 counterpoise=5

Title Card Required

0 1
C           3.50078100      7.90974000     11.01080200       1
H           3.41117900      7.42740700     10.01688600       1
H           2.49339900      8.00680000     11.43698000       1
H           4.08325600      7.21026200     11.64998400       1
C           5.50974100      9.04986000     10.17317100       1
H           5.29413800      8.85415200      9.09379900       1
H           5.97312000      8.10330400     10.55779900       1
C           4.40520800      9.78597700     12.28571900       1
H           5.18646400      9.19833700     12.82161500       1
H           4.74505400     10.83274500     12.26224900       1
H           3.48541000      9.73228500     12.88759500       1
C           3.30963000     10.18152400     10.13058800       1
H           2.35545200     10.36302400     10.64603800       1
H           3.80812500     11.14847600      9.95806200       1
H           3.07169900      9.75534600      9.12651500       1
C           6.48530200     10.22214400     10.32240200       1
H           6.93623600     10.22485700     11.34339000       1
H           5.96180100     11.19085800     10.21279600       1
C           7.59098400     10.13595800      9.27522400       1
H           8.16116500     11.08170000      9.24244400       1
H           7.17548400     10.01711200      8.25512300       1
N           4.18958200      9.24375900     10.90321900       1
S           8.76333500      8.78387000      9.58459700       1
O           9.14201800      8.89260100     11.00578100       1
O           7.94550400      7.55560300      9.31257800       1
O           9.83904100      9.01130200      8.60449400       1
O           3.35973700      8.17436100      7.73814100       2
H           4.30292400      7.91608000      7.61066600       2
H           2.91609500      7.85334600      6.96044900       2
O           5.98290300      7.53374300      7.39429500       3
H           6.66756400      7.34790800      8.08029200       3
H           6.42153000      8.14238000      6.78427000       3
O           9.94228100      8.98956500      5.93430400       4
H           9.97325600      8.83392700      6.91898000       4
H          10.51604300      9.74051300      5.81649700       4
O           7.27244800      9.42069300      5.75673200       5
H           7.09336200      9.22001700      4.84333900       5
H           8.24800200      9.28442500      5.84468700       5

