          35
 Energy =    -1292.58231190 a.u.  Frame:     1 Step:     1 Geom:     1
C          12.80650100      6.53760200     10.40545100
C          11.76951200      5.62949000     10.59037200
C          13.71977300      4.47996300     10.62912100
N          14.00600200      5.81303500     10.43091200
H          12.77884000      7.62776800     10.31660900
H          10.70976100      5.81799300     10.69090000
H          14.45355600      3.67800800     10.78027100
C          15.35473700      6.38128400     10.34434600
H          15.82518400      6.16364500      9.37298300
H          15.30895700      7.49507400     10.49121400
H          15.99741300      6.00153900     11.16570400
N          12.34437900      4.35345700     10.71380200
C          11.61861600      3.09077700     10.98025200
H          11.96208600      2.32080600     10.24908200
H          10.53185400      3.25870300     10.78714600
C          11.83453200      2.58869800     12.41654400
H          11.47262700      1.54164300     12.48146000
H          12.92644100      2.54381800     12.65309900
C          11.12929200      3.44247200     13.46750900
H          11.06272000      2.89093100     14.42895900
H          10.08404800      3.67200700     13.18221900
C          11.88528200      4.74276300     13.71651800
O          11.28211000      5.82316300     13.51658600
O          13.09725800      4.65115700     14.07863700
P          13.98140100      8.06316900     13.29833800
O          14.04880500      8.43756500     11.86693000
O          12.56509500      8.02501800     14.06905500
H          11.89891300      7.18621700     13.88122200
O          14.62282500      6.59253900     13.56215200
H          13.98725200      5.87827700     14.09224800
O          14.80692000      9.09571800     14.27378100
H          14.49814800      9.13921700     15.21798700
O          14.98243300      3.67889300     12.76682900
H          15.17994100      4.58835000     13.06070900
H          14.28681300      3.38924700     13.40107000
          35
 Energy =    -1292.59886350 a.u.  Frame:     2 Step:     2 Geom:     2
C          12.48208000      6.68233600     10.40365500
C          11.58709300      5.67332600     10.75166400
C          13.63779300      4.75907700     10.59080300
N          13.74054600      6.09560100     10.31308200
H          12.31114700      7.74125400     10.27314500
H          10.53678500      5.73667900     10.99121000
H          14.46346600      4.05430100     10.65106900
C          14.98634500      6.78986600     10.04513800
H          15.32793100      6.60766500      9.01220800
H          14.87059500      7.88641200     10.20117200
H          15.78087300      6.46468700     10.75414700
N          12.31731100      4.48975400     10.84306000
C          11.75856100      3.18354000     11.19580100
H          11.83148000      2.51597600     10.30634800
H          10.67007500      3.32159300     11.42577800
C          12.45330300      2.54064200     12.41030700
H          12.37160400      1.43813500     12.33143300
H          13.54402100      2.75629000     12.40934600
C          11.84448700      3.00777000     13.73086000
H          12.29657600      2.46653300     14.58435700
H          10.75859400      2.82039700     13.77663400
C          12.11568000      4.50751600     13.88379200
O          11.32898100      5.29018700     13.32140200
O          13.15039700      4.82809100     14.50825400
P          13.61073800      8.06678000     13.50634400
O          14.76677700      7.72990500     12.66338000
O          12.21469600      7.78151100     12.79806100
H          11.83583600      6.82860300     13.09585500
O          13.55072000      7.42803300     14.94612600
H          13.38782900      6.35815200     14.83079500
O          13.57825100      9.64036100     13.76274400
H          12.75530100      9.83493300     14.35571800
O          15.21656200      4.67173000     12.61413000
H          15.41228800      5.61443200     12.67571500
H          14.58530200      4.55793000     13.35648800
          35
 Energy =    -1292.60082380 a.u.  Frame:     3 Step:     3 Geom:     3
C          12.63970600      6.64714400     10.36395100
C          11.69737700      5.67551000     10.69494900
C          13.71180500      4.67908400     10.57351500
N          13.87531500      6.01137200     10.30327000
H          12.51247800      7.71159200     10.22494700
H          10.64435200      5.78268800     10.90846300
H          14.49785300      3.93356200     10.61293700
C          15.15660000      6.65969100     10.09439600
H          15.89332500      6.33281700     10.86391700
H          15.55817400      6.43603300      9.09194500
H          15.06581300      7.76308500     10.21256100
N          12.37737400      4.46502100     10.80568800
C          11.76868200      3.18698700     11.17833400
H          11.83138900      2.49606100     10.30659000
H          10.68220600      3.36787700     11.38936000
C          12.42582600      2.55403700     12.41935600
H          12.34206900      1.45120600     12.35076800
H          13.51722600      2.76658700     12.44806600
C          11.78286500      3.03841700     13.71732400
H          12.20762100      2.50296900     14.58843400
H          10.69510900      2.85697300     13.73452600
C          12.05531800      4.53898100     13.86450600
O          11.30830000      5.31546400     13.24104000
O          13.04741200      4.86506200     14.55013700
P          13.60223500      8.07013800     13.47119000
O          14.77179400      7.68548400     12.66728500
O          12.21814200      7.79784400     12.73568500
H          11.82582500      6.84734800     13.02807900
O          13.49031300      7.47001400     14.92431300
H          13.31111700      6.40080100     14.83280200
O          13.59989000      9.65012800     13.68652200
H          12.76299800      9.87862500     14.24741500
O          15.22544800      4.65033500     12.78014600
H          15.37588600      5.60267300     12.79507900
H          14.56217800      4.54839400     13.49251600
          35
 Energy =    -1292.60099900 a.u.  Frame:     4 Step:     4 Geom:     4
C          11.98748800      6.02006700      9.38521700
C          11.43383500      4.76559600      9.60559200
C          13.27178500      4.95335700     10.89558600
N          13.13072400      6.10862600     10.17947400
H          11.65151400      6.82282900      8.75579000
H          10.54953800      4.32204400      9.19017600
H          14.06197900      4.74275500     11.64821300
C          13.98783400      7.27550000     10.26715200
H          13.44972500      8.11852100     10.76312400
H          14.88864900      7.07449600     10.89103900
H          14.32030100      7.60243500      9.26843400
N          12.25206800      4.11130800     10.52968800
C          12.00085900      2.76453500     11.04461900
H          12.71041700      2.05959900     10.54397300
H          10.96953100      2.45782600     10.74639200
C          12.14934000      2.65059700     12.57082100
H          11.89939100      1.60979100     12.86541100
H          13.21416500      2.77744000     12.87283800
C          11.26962900      3.63109800     13.34326800
H          10.97228800      3.20663000     14.32156300
H          10.33721400      3.87158200     12.80829800
C          12.07651800      4.91150400     13.59347400
O          11.94699200      5.83467000     12.76324800
O          12.86814000      4.90169300     14.55467100
P          14.49208900      7.93537200     14.04234100
O          15.58662800      7.30728500     13.29336100
O          13.17661300      8.19146300     13.18679200
H          12.64831800      7.27165500     13.06731100
O          14.03110800      7.22368500     15.37870600
H          13.55868200      6.30141400     15.11559500
O          14.90661500      9.39945800     14.51517000
H          14.10212300      9.78975900     15.03293200
O          15.19011800      4.29267600     13.06229100
H          15.70247200      5.10519300     13.17971700
H          14.49532800      4.37754400     13.74774400
          35
 Energy =    -1292.59067540 a.u.  Frame:     5 Step:     5 Geom:     5
C          12.54007200      6.42876100     10.22645900
C          11.72743600      5.40236600     10.70408800
C          13.87271300      4.73183900     10.86044300
N          13.85653600      5.98231800     10.31071200
H          12.27480300      7.42032000      9.90640300
H          10.65291900      5.37741000     10.84913800
H          14.75443900      4.15133900     11.10941800
C          15.02985000      6.75115900      9.94234300
H          15.84233400      6.09506900      9.57211600
H          14.78542600      7.50024400      9.17091100
H          15.44378800      7.29479100     10.82669200
N          12.56659600      4.35832000     11.07897100
C          12.13905200      3.06823200     11.62056800
H          12.88626500      2.29330700     11.32835100
H          11.17278100      2.78559700     11.13700300
C          11.97821900      3.08490300     13.15059900
H          12.07686200      2.04900000     13.53034800
H          12.82166100      3.64519100     13.62278500
C          10.64464600      3.67851200     13.60930900
H          10.29715800      3.19050800     14.53940400
H           9.84267500      3.55206000     12.86801700
C          10.88418000      5.16643500     13.89086400
O          10.71401000      5.95571600     12.93241100
O          11.28978600      5.46801200     15.02600800
P          13.84834600      7.10153600     13.59665700
O          14.45350700      5.84198800     13.11120700
O          12.70409200      7.65992000     12.65758400
H          11.80480600      7.05373000     12.81127300
O          13.33936400      7.13596100     15.07903400
H          12.44959500      6.47960800     15.13112700
O          14.97180200      8.24102200     13.51208200
H          14.57156500      9.10049800     13.91356400
O          16.84546700      5.29592600     11.66507200
H          16.09818900      5.54889200     12.23745600
H          17.60907700      5.35951100     12.23160200
          35
 Energy =    -1292.59026630 a.u.  Frame:     6 Step:     6 Geom:     6
C          12.85934600      6.47573800     10.06380000
C          11.85456000      5.62666300     10.52672300
C          13.83878400      4.63941900     10.91885300
N          14.07303000      5.83834500     10.30145900
H          12.78428100      7.46818800      9.65843700
H          10.78352400      5.77977800     10.57977900
H          14.59290000      3.95091900     11.28235400
C          15.38340700      6.40021700     10.03638300
H          15.76833700      6.94314500     10.93449500
H          16.12360200      5.60846400      9.80612800
H          15.34567300      7.11557000      9.19819500
N          12.47862100      4.49280200     11.03467000
C          11.78600900      3.33250900     11.59757200
H          12.09972500      2.42653900     11.03115200
H          10.68695000      3.47384700     11.42551300
C          12.04269000      3.14437500     13.10498300
H          12.24836400      2.07845100     13.31586900
H          12.95877600      3.69406500     13.42205800
C          10.85647700      3.62242700     13.94424000
H          10.93789000      3.25234500     14.98416600
H           9.89179600      3.26228600     13.55652500
C          10.87479400      5.15489200     13.95097700
O          10.73071300      5.71587400     12.83367200
O          11.08478600      5.72899400     15.02797800
P          13.70262500      7.20654900     13.48254100
O          14.35261000      5.92067800     13.15426400
O          12.52909700      7.60108600     12.50273400
H          11.68527100      6.90792900     12.67582300
O          13.19901100      7.39387300     14.96123200
H          12.31222900      6.76868600     15.07395200
O          14.77864600      8.37336900     13.26775800
H          14.34148400      9.25550000     13.57090700
O          16.75592000      4.84221500     12.04781800
H          16.01624100      5.28014000     12.50129600
H          17.43185000      4.76413100     12.71571400
