          25
 Energy =    -1045.30598010 a.u.  Frame:     1 Step:     1 Geom:     1
C           5.16809800     15.17541700      4.96671000
C           5.47877600     14.12601600      5.83960200
C           5.64020300     12.84501200      5.31505400
C           5.45754700     12.64066600      3.94781400
C           5.12984300     13.73822700      3.14516800
N           4.99115200     14.98417100      3.64405500
H           5.92710600     12.01793800      5.96344000
H           5.07886500     16.20944400      5.32169100
H           5.61994000     14.31984800      6.89927000
H           5.58564700     11.65662400      3.50978500
H           4.99453400     13.64174300      2.06125900
P           7.86792900     16.21514100      2.50239300
O           8.10601600     14.78913300      2.74053500
O           8.90284400     16.81331600      1.45363800
H           8.64723800     17.80531400      1.30174800
O           6.47464800     16.63174900      1.87084200
H           5.69706100     16.23206900      2.46491800
O           8.03389200     17.19994800      3.74466900
H           7.83879700     16.70509300      4.62953000
O           7.62843300     15.87380900      6.25924100
H           7.81207100     14.94799300      6.00799700
H           8.35540300     16.13114700      6.82071800
O           8.25192500     13.31325700      5.28613900
H           8.07033900     13.66564900      4.39645400
H           9.17169800     13.05129000      5.24733200
          25
 Energy =    -1045.30534190 a.u.  Frame:     2 Step:     2 Geom:     2
C           5.90953800     12.81075800      3.88308000
C           6.03745200     12.99665000      5.26347200
C           5.47799600     14.13771500      5.83698100
C           4.80065900     15.04697200      5.02747500
C           4.71375100     14.78558200      3.65438600
N           5.26595500     13.69158800      3.08895400
H           5.58569100     14.32405400      6.90676400
H           6.35023700     11.94697000      3.37379600
H           6.58247100     12.28209600      5.87315400
H           4.38067400     15.95831700      5.44501100
H           4.21550600     15.47789400      2.96624300
P           8.05126100     15.54816800      2.76162400
O           8.68792600     14.68900800      3.75989700
O           9.10116200     16.56133000      2.13349000
H           8.63176800     17.07243200      1.36897800
O           7.43169100     14.85702500      1.47297700
H           6.56400500     14.33619600      1.76430100
O           6.82802500     16.44802700      3.24779000
H           6.83493300     16.57214200      4.27418600
O           6.79469000     16.79907300      6.09236500
H           7.21119800     15.96757300      6.38367200
H           7.41763800     17.48409700      6.32682200
O           8.16350900     14.39617800      6.64036900
H           8.27787800     14.32401800      5.67734300
H           9.05439000     14.40615900      6.98687200
          25
 Energy =    -1045.30966100 a.u.  Frame:     3 Step:     3 Geom:     3
C           4.86455600     14.38182400      3.09983400
C           4.17303800     14.78043900      4.25093900
C           4.43057200     14.11565200      5.44800300
C           5.37189800     13.08887500      5.46968800
C           6.02424000     12.75282200      4.27699500
N           5.76768000     13.38062200      3.11220300
H           3.90159600     14.39617100      6.35853100
H           4.71742300     14.88276300      2.13412800
H           3.46020300     15.59895000      4.20484700
H           5.60545000     12.56233800      6.39019500
H           6.79093400     11.96908800      4.23796800
P           8.37545600     15.36328700      2.97291400
O           8.72585900     14.89915800      4.31675500
O           9.52883300     16.27446100      2.36730000
H           9.26292400     16.52894000      1.40397600
O           8.16488400     14.27603400      1.83908100
H           7.28098400     13.73743700      2.06568400
O           7.04354600     16.23091400      2.84022500
H           6.75127400     16.60333200      3.76320800
O           6.14868300     17.06931700      5.39415200
H           6.97732200     17.07675000      5.91415300
H           5.68978900     16.28710900      5.70309200
O           8.60049200     16.69598500      6.64067000
H           8.75813200     15.97796200      6.00531200
H           9.23423600     17.36978700      6.39014800
          25
 Energy =    -1045.31218570 a.u.  Frame:     4 Step:     4 Geom:     4
C           3.62648200     14.18411300      4.00631500
C           2.95391900     13.12587900      4.62741200
C           3.66363500     11.95903300      4.90897400
C           5.01135200     11.88104100      4.56721200
C           5.61293000     12.98424400      3.94646500
N           4.92893100     14.11062800      3.67132600
H           3.16766800     11.11766900      5.39234200
H           3.12307200     15.12716500      3.76355100
H           1.90272100     13.21488500      4.88386600
H           5.59100900     10.98663800      4.77639100
H           6.67588300     12.97841300      3.65769300
P           7.90882700     16.21768400      3.24027200
O           8.52388600     14.92251300      3.55412700
O           8.83067900     17.03516200      2.22833800
H           8.33222300     17.88972800      1.95219600
O           6.50306800     16.22670000      2.51905300
H           5.88821500     15.49781100      2.99757200
O           7.65176600     17.19706400      4.46527000
H           8.43135000     17.10583400      5.15009500
O           9.74182900     16.83140400      6.40662300
H          10.33174000     16.20136900      5.94797700
H           9.36145400     16.32137700      7.11897500
O          11.10906800     14.90616700      4.93254400
H          10.27516500     14.72125300      4.46381300
H          11.65313300     15.33624400      4.27160000
          25
 Energy =    -1045.31245290 a.u.  Frame:     5 Step:     5 Geom:     5
C           5.52712800     12.06183200      4.80285800
C           4.27151300     11.47744900      4.60420900
C           3.26445300     12.24487600      4.01971800
C           3.53534500     13.56066500      3.65331800
C           4.81915200     14.07301800      3.88529700
N           5.79291000     13.33403100      4.44880500
H           2.27588700     11.81794700      3.85216700
H           6.35750200     11.50938600      5.25761600
H           4.08856400     10.44885200      4.89972200
H           2.77132000     14.18325500      3.19664400
H           5.08746700     15.10698600      3.61615600
P           8.24506900     16.14755500      4.67081600
O           7.21721900     16.62906400      3.74066300
O           8.01282800     16.74799900      6.12568200
H           8.77564000     16.41316300      6.73209500
O           8.35543500     14.57834700      4.85083100
H           7.39347400     14.15030700      4.73250400
O           9.75364300     16.55735400      4.38608600
H           9.98130700     16.33090700      3.39035900
O          10.24160200     16.10494400      1.60605000
H           9.52370700     16.68672000      1.28821400
H           9.95811000     15.22287500      1.36766800
O           8.00031700     17.67296500      1.09682800
H           7.58218100     17.31988900      1.90184900
H           8.20823300     18.57963800      1.32384500
          25
 Energy =    -1045.31251990 a.u.  Frame:     6 Step:     6 Geom:     6
C           4.76389400     14.63219100      4.47147500
C           3.40291300     14.36041200      4.66805200
C           3.00161200     13.03654100      4.82650200
C           3.95884200     12.02317300      4.78615500
C           5.29781700     12.37620500      4.58632000
N           5.68944500     13.65571700      4.43088700
H           1.95061800     12.79329800      4.98085200
H           5.13602000     15.66096600      4.34271600
H           2.68097200     15.17153500      4.69616600
H           3.67468000     10.98233300      4.90713200
H           6.09484900     11.62477400      4.54650400
P           8.59552100     15.97870700      4.52291300
O           7.46624400     16.83588800      4.14443000
O           8.88148000     16.08257400      6.08444900
H           9.70111200     15.49494000      6.29624400
O           8.45092700     14.43550200      4.19967200
H           7.43063600     14.16051400      4.27459700
O          10.02143300     16.31472100      3.90727700
H           9.92640900     16.40717000      2.86962500
O           9.64810800     16.75065400      1.10573700
H           8.99144000     17.46703700      1.20730700
H           9.15297700     16.02305500      0.73097700
O           7.68330200     18.59730100      1.78910100
H           7.44112900     18.04442800      2.55279000
H           8.10762200     19.36038200      2.18212400
          25
 Energy =    -1045.31003990 a.u.  Frame:     7 Step:     7 Geom:     7
C           4.88660600     13.82992600      4.13057900
C           3.63632500     13.20575000      4.23904500
C           3.39860000     12.05203700      3.49644600
C           4.40462500     11.55196200      2.67029300
C           5.62595100     12.23265800      2.61722300
N           5.85894600     13.34916800      3.33359400
H           2.43654000     11.54426200      3.55905900
H           5.12942500     14.74376400      4.69569100
H           2.87250100     13.61875100      4.89142600
H           4.24681900     10.65478900      2.07983800
H           6.45398200     11.88812700      1.98696000
P           8.52823300     15.61061100      4.64396700
O           7.27511800     16.14876200      5.18634500
O           9.30647900     14.77257800      5.75209100
H          10.17431200     14.41487000      5.32893500
O           8.42284400     14.65853800      3.38596800
H           7.45803000     14.21479700      3.37611100
O           9.64988200     16.64353100      4.19176400
H           9.19978400     17.43118000      3.67879500
O           8.51263800     19.06203000      3.13401700
H           7.82169300     19.13747500      3.81828500
H           9.07660500     19.81762800      3.27209900
O           6.79619700     19.04111100      5.34950000
H           6.75225100     18.07091400      5.26927100
H           7.26561700     19.17479800      6.17269800
          25
 Energy =    -1045.31117110 a.u.  Frame:     8 Step:     8 Geom:     8
C           5.40055000     13.28941100      3.60535700
C           4.50826700     12.21094600      3.53475700
C           3.26763100     12.32771800      4.15640400
C           2.94888500     13.50725000      4.82843700
C           3.89417500     14.53849400      4.85355000
N           5.09559500     14.42880000      4.25421900
H           2.55213800     11.50652200      4.11861500
H           6.39303400     13.25079700      3.12912400
H           4.78433100     11.30516500      3.00239500
H           1.98907100     13.62617000      5.32199600
H           3.70055400     15.48890800      5.36449900
P           8.10355800     16.25150700      3.06245400
O           8.54671400     14.85278700      3.03704200
O           7.53143500     16.68310000      1.64079900
H           7.30276000     17.68633700      1.68146100
O           6.97839400     16.60857500      4.11910200
H           6.28743900     15.80729300      4.16054300
O           9.18128000     17.38422300      3.34095300
H           9.82232400     17.06173000      4.10209000
O          11.11082100     16.44687200      5.23067200
H          10.83563400     15.51775000      5.35919600
H          11.93240500     16.38570900      4.74695800
O          10.17131300     13.83722400      5.27212100
H           9.69707500     14.00806200      4.43901100
H           9.47462100     13.78866700      5.92824700
          25
 Energy =    -1045.31061210 a.u.  Frame:     9 Step:     9 Geom:     9
C           4.38375300     13.89953000      2.57547400
C           3.41878800     12.90640200      2.77622200
C           3.60625500     11.99597100      3.81564300
C           4.73976800     12.10075100      4.61780800
C           5.66002100     13.12384100      4.35214600
N           5.48067600     14.00489500      3.35018800
H           2.87277600     11.21045000      3.99689600
H           4.29210400     14.64187500      1.77412700
H           2.54489200     12.84826000      2.13431000
H           4.91423500     11.40481300      5.43355400
H           6.57434700     13.24972800      4.95345600
P           8.79915000     15.62097000      3.81033600
O           8.49635800     15.12058600      5.15480600
O           9.66907100     14.56305400      3.00066700
H           9.93106800     14.98936100      2.10020900
O           7.54430900     15.96332000      2.90173400
H           6.80232500     15.22579600      3.04670900
O           9.66757900     16.94329200      3.67708500
H           9.21608700     17.69745400      4.24712400
O           8.36616100     18.93618800      5.26420500
H           8.12570800     18.40079900      6.04406900
H           7.53322100     19.12153600      4.83342800
O           7.53881500     17.05523100      7.18475800
H           8.00293200     16.35710100      6.69012800
H           6.61961100     16.79881700      7.13492100
          25
 Energy =    -1045.30765680 a.u.  Frame:    10 Step:    10 Geom:    10
C           5.01467900     15.32408800      3.41449100
C           4.08986400     14.97185900      4.40498000
C           3.86227000     13.62032000      4.65430500
C           4.55895500     12.66385800      3.91800500
C           5.47349500     13.09845800      2.95120300
N           5.68950500     14.40398200      2.69729500
H           3.15340600     13.31459500      5.42237100
H           5.24451700     16.37207700      3.19108300
H           3.58620600     15.74537200      4.97970600
H           4.41114000     11.60368200      4.09753900
H           6.06978800     12.39280900      2.36171200
P           8.87393900     14.93140900      3.93319200
O           7.84583100     14.52278000      4.89517400
O           9.99637300     13.81818100      3.77826100
H          10.70819100     14.18144800      3.12316800
O           8.38558700     15.25515500      2.45541800
H           7.43450800     14.83812200      2.29113000
O           9.72816000     16.22684500      4.28093100
H           9.07175600     17.03641200      4.36351800
O           7.74799400     18.32429700      4.51217900
H           7.06390100     17.83151600      5.00083800
H           7.38529200     18.43920800      3.63494600
O           5.94557500     16.59245700      5.78927700
H           6.46785000     15.81430600      5.51657800
H           6.09122300     16.65678100      6.73270300
          25
 Energy =    -1045.29009100 a.u.  Frame:    11 Step:    11 Geom:    11
C           4.90802000     13.32141900      5.10902100
C           5.12531900     12.63230100      3.90968700
C           4.74909200     13.24194000      2.71444500
C           4.14599200     14.49895800      2.74817300
C           3.96104900     15.11701600      3.99177100
N           4.34469100     14.54515800      5.15188700
H           4.94043700     12.74998800      1.76235400
H           5.20714100     12.90299400      6.07521300
H           5.60996700     11.66170800      3.91270800
H           3.85578500     15.00333600      1.83353400
H           3.51419800     16.11215000      4.07946800
P           7.45110100     15.75358400      3.99070900
O           7.93481900     14.37323000      3.97789400
O           6.21856500     15.95929700      2.99389100
H           6.24328200     16.92233100      2.63557900
O           6.92960100     16.28155900      5.39901300
H           6.05285600     15.77379100      5.63339000
O           8.44908900     16.91193000      3.57088800
H           9.41450000     16.67992900      3.91673300
O          11.08816700     16.22125500      4.30748900
H          10.98225700     15.36193000      4.76315800
H          11.54495600     16.00335800      3.49648400
O          10.47662400     13.73811200      5.37898700
H           9.65728700     13.73313300      4.85657000
H          10.17521200     13.85960800      6.28095500
          25
 Energy =    -1045.30876550 a.u.  Frame:    12 Step:    12 Geom:    12
C           5.70531200     12.25683400      4.99068200
C           4.45999100     11.62100100      4.93786000
C           3.39683300     12.28771700      4.33001800
C           3.60337500     13.55781100      3.79756400
C           4.88085700     14.12670900      3.89006000
N           5.90960100     13.48379700      4.47376300
H           2.41449200     11.81908000      4.27374000
H           6.57707500     11.78444900      5.45844100
H           4.32753500     10.63065400      5.36301000
H           2.79376500     14.10325300      3.32119800
H           5.09711600     15.12970100      3.48986600
P           8.09049900     16.45800300      4.53192000
O           7.15409800     16.85709500      3.47274000
O           7.60460400     16.78748700      6.01615000
H           7.56111300     17.81170200      6.10509700
O           8.40558000     14.91174500      4.61859600
H           7.47619000     14.39342000      4.66369900
O           9.52543200     17.13278100      4.48921100
H           9.93081400     16.98761900      3.53302500
O          10.56139600     16.69062400      1.85805100
H           9.74644000     16.78791400      1.32875600
H          10.78094900     15.76294900      1.79358700
O           8.01447100     16.71134800      0.68114900
H           7.63800400     16.95441200      1.54752200
H           7.65446300     15.84191300      0.51429700
