          25
 G =       -0.468507 Gcorr = 0.115647 a.u. Nimag =   0 Frame:     1 Step:     1 Geom:     1
C           4.88660600     13.82992600      4.13057900
C           3.63632500     13.20575000      4.23904500
C           3.39860000     12.05203700      3.49644600
C           4.40462500     11.55196200      2.67029300
C           5.62595100     12.23265800      2.61722300
N           5.85894600     13.34916800      3.33359400
H           2.43654000     11.54426200      3.55905900
H           5.12942500     14.74376400      4.69569100
H           2.87250100     13.61875100      4.89142600
H           4.24681900     10.65478900      2.07983800
H           6.45398200     11.88812700      1.98696000
P           8.52823300     15.61061100      4.64396700
O           7.27511800     16.14876200      5.18634500
O           9.30647900     14.77257800      5.75209100
H          10.17431200     14.41487000      5.32893500
O           8.42284400     14.65853800      3.38596800
H           7.45803000     14.21479700      3.37611100
O           9.64988200     16.64353100      4.19176400
H           9.19978400     17.43118000      3.67879500
O           8.51263800     19.06203000      3.13401700
H           7.82169300     19.13747500      3.81828500
H           9.07660500     19.81762800      3.27209900
O           6.79619700     19.04111100      5.34950000
H           6.75225100     18.07091400      5.26927100
H           7.26561700     19.17479800      6.17269800
          25
 G =       -0.468485 Gcorr = 0.115669 a.u. Nimag =   0 Frame:     2 Step:     2 Geom:     2
C           5.23674400     13.47540600      4.30830200
C           4.21510800     12.56431000      4.60944200
C           3.30234900     12.23002800      3.61234900
C           3.42872800     12.80707200      2.34913900
C           4.47635000     13.70774800      2.12749000
N           5.36048400     14.03375300      3.08980400
H           2.49683600     11.52500600      3.81583100
H           5.98642900     13.77454400      5.05789000
H           4.14260700     12.13098600      5.60270800
H           2.73124100     12.56525800      1.55321800
H           4.62712000     14.19289000      1.15615800
P           8.71500600     15.54440000      3.74171000
O           8.23706200     15.10005800      5.05630500
O           9.78037400     14.51715400      3.15384000
H          10.08451100     14.86630800      2.23413000
O           7.63321900     15.73346800      2.60404400
H           6.79542600     15.12015600      2.82686600
O           9.52661900     16.91001900      3.66563700
H           9.05928800     17.61756700      4.27162000
O           8.59484700     18.81773800      5.60232300
H           8.51448200     18.17012500      6.32728200
H           9.28412900     19.41325900      5.88227800
O           8.66401300     16.72481600      7.46499600
H           8.35151800     16.12686900      6.76182100
H           9.55551600     16.42107700      7.63482100
          25
 G =       -0.469096 Gcorr = 0.117000 a.u. Nimag =   0 Frame:     3 Step:     3 Geom:     3
C           5.02009700     13.80438000      4.20909400
C           3.74513000     13.25205100      4.39318100
C           3.22598000     12.42354000      3.40171000
C           3.98411100     12.16712800      2.25969100
C           5.24846400     12.75624800      2.15059400
N           5.75337900     13.55886400      3.10731300
H           2.23744000     11.97926400      3.51578900
H           5.47920200     14.46521400      4.96142200
H           3.17864900     13.46983000      5.29408800
H           3.60458500     11.52496900      1.47079600
H           5.89036100     12.59199800      1.27734900
P           8.79089900     15.36203200      4.33345500
O           7.71314000     15.80960900      5.22311900
O           9.66178200     14.22798300      5.03097900
H          10.42332300     13.97154400      4.38580400
O           8.35125600     14.78164200      2.92750400
H           7.40934000     14.30759300      3.03042600
O           9.90279500     16.42084900      3.92390500
H           9.43037200     17.28629400      3.57436200
O           8.54654100     18.82413200      3.17487900
H           8.07380100     18.93459200      4.02285900
H           7.85855100     18.62188700      2.54169800
O           7.23897700     18.69170300      5.62728500
H           7.23747900     17.72046100      5.56330100
H           7.87435200     18.87620400      6.31939900
          25
 G =       -0.467550 Gcorr = 0.119642 a.u. Nimag =   0 Frame:     4 Step:     4 Geom:     4
C           5.01467900     15.32408800      3.41449100
C           4.08986400     14.97185900      4.40498000
C           3.86227000     13.62032000      4.65430500
C           4.55895500     12.66385800      3.91800500
C           5.47349500     13.09845800      2.95120300
N           5.68950500     14.40398200      2.69729500
H           3.15340600     13.31459500      5.42237100
H           5.24451700     16.37207700      3.19108300
H           3.58620600     15.74537200      4.97970600
H           4.41114000     11.60368200      4.09753900
H           6.06978800     12.39280900      2.36171200
P           8.87393900     14.93140900      3.93319200
O           7.84583100     14.52278000      4.89517400
O           9.99637300     13.81818100      3.77826100
H          10.70819100     14.18144800      3.12316800
O           8.38558700     15.25515500      2.45541800
H           7.43450800     14.83812200      2.29113000
O           9.72816000     16.22684500      4.28093100
H           9.07175600     17.03641200      4.36351800
O           7.74799400     18.32429700      4.51217900
H           7.06390100     17.83151600      5.00083800
H           7.38529200     18.43920800      3.63494600
O           5.94557500     16.59245700      5.78927700
H           6.46785000     15.81430600      5.51657800
H           6.09122300     16.65678100      6.73270300
          25
 G =       -0.469074 Gcorr = 0.117022 a.u. Nimag =   0 Frame:     5 Step:     5 Geom:     5
C           3.77222200     14.81563200      3.41987100
C           2.75859400     13.86574700      3.58657800
C           3.11560700     12.56684900      3.94740500
C           4.46033400     12.25491000      4.12999500
C           5.41621500     13.26305600      3.94421500
N           5.07394000     14.51759200      3.59656400
H           2.34890600     11.80463400      4.08459300
H           3.55382600     15.85180500      3.13674400
H           1.71798500     14.13720500      3.43753800
H           4.76934400     11.25203100      4.41050900
H           6.49312500     13.07118800      4.07442000
P           8.59380700     15.70731600      3.17554900
O           8.71750100     14.44876500      3.91990200
O           8.89911900     15.47991200      1.63087800
H           8.83410500     16.39294200      1.15740200
O           7.18968100     16.43561800      3.24748100
H           6.42774400     15.70570100      3.34216400
O           9.59854500     16.88431900      3.53634500
H           9.58278600     17.03430000      4.57154500
O           9.65799800     17.09901300      6.38757300
H           9.93047500     16.17430700      6.54670700
H           8.76420100     17.14684200      6.72511300
O          10.23776600     14.37839000      6.44597800
H           9.67085900     14.24992700      5.66522700
H          11.12531900     14.25201900      6.10970300
          25
 G =       -0.467273 Gcorr = 0.117149 a.u. Nimag =   0 Frame:     6 Step:     7 Geom:     7
C           4.90802000     13.32141900      5.10902100
C           5.12531900     12.63230100      3.90968700
C           4.74909200     13.24194000      2.71444500
C           4.14599200     14.49895800      2.74817300
C           3.96104900     15.11701600      3.99177100
N           4.34469100     14.54515800      5.15188700
H           4.94043700     12.74998800      1.76235400
H           5.20714100     12.90299400      6.07521300
H           5.60996700     11.66170800      3.91270800
H           3.85578500     15.00333600      1.83353400
H           3.51419800     16.11215000      4.07946800
P           7.45110100     15.75358400      3.99070900
O           7.93481900     14.37323000      3.97789400
O           6.21856500     15.95929700      2.99389100
H           6.24328200     16.92233100      2.63557900
O           6.92960100     16.28155900      5.39901300
H           6.05285600     15.77379100      5.63339000
O           8.44908900     16.91193000      3.57088800
H           9.41450000     16.67992900      3.91673300
O          11.08816700     16.22125500      4.30748900
H          10.98225700     15.36193000      4.76315800
H          11.54495600     16.00335800      3.49648400
O          10.47662400     13.73811200      5.37898700
H           9.65728700     13.73313300      4.85657000
H          10.17521200     13.85960800      6.28095500
          25
 G =       -0.468164 Gcorr = 0.117013 a.u. Nimag =   0 Frame:     7 Step:     9 Geom:     9
C           5.40055000     13.28941100      3.60535700
C           4.50826700     12.21094600      3.53475700
C           3.26763100     12.32771800      4.15640400
C           2.94888500     13.50725000      4.82843700
C           3.89417500     14.53849400      4.85355000
N           5.09559500     14.42880000      4.25421900
H           2.55213800     11.50652200      4.11861500
H           6.39303400     13.25079700      3.12912400
H           4.78433100     11.30516500      3.00239500
H           1.98907100     13.62617000      5.32199600
H           3.70055400     15.48890800      5.36449900
P           8.10355800     16.25150700      3.06245400
O           8.54671400     14.85278700      3.03704200
O           7.53143500     16.68310000      1.64079900
H           7.30276000     17.68633700      1.68146100
O           6.97839400     16.60857500      4.11910200
H           6.28743900     15.80729300      4.16054300
O           9.18128000     17.38422300      3.34095300
H           9.82232400     17.06173000      4.10209000
O          11.11082100     16.44687200      5.23067200
H          10.83563400     15.51775000      5.35919600
H          11.93240500     16.38570900      4.74695800
O          10.17131300     13.83722400      5.27212100
H           9.69707500     14.00806200      4.43901100
H           9.47462100     13.78866700      5.92824700
          25
 G =       -0.469093 Gcorr = 0.117003 a.u. Nimag =   0 Frame:     8 Step:    10 Geom:    10
C           5.11266800     13.65210800      3.52622300
C           4.12078700     12.73847900      3.14418400
C           3.60156600     11.87477000      4.10512400
C           4.07933800     11.94202100      5.41352200
C           5.07074400     12.88196400      5.71557600
N           5.57586400     13.71835200      4.78837200
H           2.82959100     11.15315500      3.83877400
H           5.55718600     14.35866700      2.80742700
H           3.76830700     12.71025100      2.11709500
H           3.69265800     11.28110900      6.18322300
H           5.48520300     12.98210400      6.72539800
P           7.73361400     16.71184800      4.18353500
O           7.40130600     16.22054600      2.84131200
O           6.80825600     17.94489400      4.57640800
H           7.10006200     18.27593000      5.50765900
O           7.60946500     15.66891500      5.36826700
H           6.83148200     14.98522600      5.14452300
O           9.18767600     17.30904600      4.41621900
H           9.89331900     16.62610400      4.05571300
O          11.04806900     15.49202900      3.22732100
H          10.65641000     15.52769300      2.33286500
H          10.86938100     14.60292900      3.53178900
O           9.55078200     15.69844100      0.89128500
H           8.74226800     15.77662300      1.42756400
H           9.67400400     16.57681300      0.53062300
          25
 G =       -0.469096 Gcorr = 0.117000 a.u. Nimag =   0 Frame:     9 Step:    11 Geom:    11
C           4.74304400     14.13695500      3.77978900
C           3.46298000     13.63591700      3.50596600
C           3.26193900     12.25858300      3.54408600
C           4.33295500     11.42022400      3.85204400
C           5.58017700     11.99781000      4.11348900
N           5.77842100     13.32967200      4.07669400
H           2.27814400     11.83866800      3.33569700
H           4.95759600     15.21734100      3.76446200
H           2.64817700     14.31432400      3.26973100
H           4.20516400     10.34269200      3.88897500
H           6.45875300     11.39096300      4.36123700
P           8.15227600     16.11650800      4.83654000
O           7.04174100     16.76144000      4.12648600
O           8.01513600     16.32938400      6.40719100
H           8.83161900     15.89202300      6.85875300
O           8.32365900     14.55844000      4.61342100
H           7.36912100     14.12628200      4.45616800
O           9.62151800     16.65591300      4.56181200
H           9.77726400     16.69549700      3.52815900
O           9.90443100     16.93290800      1.72940000
H           9.14700300     17.53999800      1.61789400
H           9.62936800     16.12489300      1.29741100
O           7.58493700     18.46834500      1.78495000
H           7.24176100     17.90622000      2.50162700
H           7.78282100     19.29901500      2.21802000
          25
 G =       -0.469098 Gcorr = 0.116998 a.u. Nimag =   0 Frame:    10 Step:    12 Geom:    12
C           5.52712800     12.06183200      4.80285800
C           4.27151300     11.47744900      4.60420900
C           3.26445300     12.24487600      4.01971800
C           3.53534500     13.56066500      3.65331800
C           4.81915200     14.07301800      3.88529700
N           5.79291000     13.33403100      4.44880500
H           2.27588700     11.81794700      3.85216700
H           6.35750200     11.50938600      5.25761600
H           4.08856400     10.44885200      4.89972200
H           2.77132000     14.18325500      3.19664400
H           5.08746700     15.10698600      3.61615600
P           8.24506900     16.14755500      4.67081600
O           7.21721900     16.62906400      3.74066300
O           8.01282800     16.74799900      6.12568200
H           8.77564000     16.41316300      6.73209500
O           8.35543500     14.57834700      4.85083100
H           7.39347400     14.15030700      4.73250400
O           9.75364300     16.55735400      4.38608600
H           9.98130700     16.33090700      3.39035900
O          10.24160200     16.10494400      1.60605000
H           9.52370700     16.68672000      1.28821400
H           9.95811000     15.22287500      1.36766800
O           8.00031700     17.67296500      1.09682800
H           7.58218100     17.31988900      1.90184900
H           8.20823300     18.57963800      1.32384500
          25
 G =       -0.466459 Gcorr = 0.116255 a.u. Nimag =   0 Frame:    11 Step:    13 Geom:    13
C           5.70531200     12.25683400      4.99068200
C           4.45999100     11.62100100      4.93786000
C           3.39683300     12.28771700      4.33001800
C           3.60337500     13.55781100      3.79756400
C           4.88085700     14.12670900      3.89006000
N           5.90960100     13.48379700      4.47376300
H           2.41449200     11.81908000      4.27374000
H           6.57707500     11.78444900      5.45844100
H           4.32753500     10.63065400      5.36301000
H           2.79376500     14.10325300      3.32119800
H           5.09711600     15.12970100      3.48986600
P           8.09049900     16.45800300      4.53192000
O           7.15409800     16.85709500      3.47274000
O           7.60460400     16.78748700      6.01615000
H           7.56111300     17.81170200      6.10509700
O           8.40558000     14.91174500      4.61859600
H           7.47619000     14.39342000      4.66369900
O           9.52543200     17.13278100      4.48921100
H           9.93081400     16.98761900      3.53302500
O          10.56139600     16.69062400      1.85805100
H           9.74644000     16.78791400      1.32875600
H          10.78094900     15.76294900      1.79358700
O           8.01447100     16.71134800      0.68114900
H           7.63800400     16.95441200      1.54752200
H           7.65446300     15.84191300      0.51429700
          25
 G =       -0.469003 Gcorr = 0.117076 a.u. Nimag =   0 Frame:    12 Step:    14 Geom:    14
C           4.76389400     14.63219100      4.47147500
C           3.40291300     14.36041200      4.66805200
C           3.00161200     13.03654100      4.82650200
C           3.95884200     12.02317300      4.78615500
C           5.29781700     12.37620500      4.58632000
N           5.68944500     13.65571700      4.43088700
H           1.95061800     12.79329800      4.98085200
H           5.13602000     15.66096600      4.34271600
H           2.68097200     15.17153500      4.69616600
H           3.67468000     10.98233300      4.90713200
H           6.09484900     11.62477400      4.54650400
P           8.59552100     15.97870700      4.52291300
O           7.46624400     16.83588800      4.14443000
O           8.88148000     16.08257400      6.08444900
H           9.70111200     15.49494000      6.29624400
O           8.45092700     14.43550200      4.19967200
H           7.43063600     14.16051400      4.27459700
O          10.02143300     16.31472100      3.90727700
H           9.92640900     16.40717000      2.86962500
O           9.64810800     16.75065400      1.10573700
H           8.99144000     17.46703700      1.20730700
H           9.15297700     16.02305500      0.73097700
O           7.68330200     18.59730100      1.78910100
H           7.44112900     18.04442800      2.55279000
H           8.10762200     19.36038200      2.18212400
          25
 G =       -0.470215 Gcorr = 0.121102 a.u. Nimag =   0 Frame:    13 Step:    16 Geom:    16
C           5.90953800     12.81075800      3.88308000
C           6.03745200     12.99665000      5.26347200
C           5.47799600     14.13771500      5.83698100
C           4.80065900     15.04697200      5.02747500
C           4.71375100     14.78558200      3.65438600
N           5.26595500     13.69158800      3.08895400
H           5.58569100     14.32405400      6.90676400
H           6.35023700     11.94697000      3.37379600
H           6.58247100     12.28209600      5.87315400
H           4.38067400     15.95831700      5.44501100
H           4.21550600     15.47789400      2.96624300
P           8.05126100     15.54816800      2.76162400
O           8.68792600     14.68900800      3.75989700
O           9.10116200     16.56133000      2.13349000
H           8.63176800     17.07243200      1.36897800
O           7.43169100     14.85702500      1.47297700
H           6.56400500     14.33619600      1.76430100
O           6.82802500     16.44802700      3.24779000
H           6.83493300     16.57214200      4.27418600
O           6.79469000     16.79907300      6.09236500
H           7.21119800     15.96757300      6.38367200
H           7.41763800     17.48409700      6.32682200
O           8.16350900     14.39617800      6.64036900
H           8.27787800     14.32401800      5.67734300
H           9.05439000     14.40615900      6.98687200
          25
 G =       -0.469109 Gcorr = 0.118871 a.u. Nimag =   0 Frame:    14 Step:    17 Geom:    17
C           4.86455600     14.38182400      3.09983400
C           4.17303800     14.78043900      4.25093900
C           4.43057200     14.11565200      5.44800300
C           5.37189800     13.08887500      5.46968800
C           6.02424000     12.75282200      4.27699500
N           5.76768000     13.38062200      3.11220300
H           3.90159600     14.39617100      6.35853100
H           4.71742300     14.88276300      2.13412800
H           3.46020300     15.59895000      4.20484700
H           5.60545000     12.56233800      6.39019500
H           6.79093400     11.96908800      4.23796800
P           8.37545600     15.36328700      2.97291400
O           8.72585900     14.89915800      4.31675500
O           9.52883300     16.27446100      2.36730000
H           9.26292400     16.52894000      1.40397600
O           8.16488400     14.27603400      1.83908100
H           7.28098400     13.73743700      2.06568400
O           7.04354600     16.23091400      2.84022500
H           6.75127400     16.60333200      3.76320800
O           6.14868300     17.06931700      5.39415200
H           6.97732200     17.07675000      5.91415300
H           5.68978900     16.28710900      5.70309200
O           8.60049200     16.69598500      6.64067000
H           8.75813200     15.97796200      6.00531200
H           9.23423600     17.36978700      6.39014800
          25
 G =       -0.469105 Gcorr = 0.117053 a.u. Nimag =   0 Frame:    15 Step:    18 Geom:    18
C           3.62648200     14.18411300      4.00631500
C           2.95391900     13.12587900      4.62741200
C           3.66363500     11.95903300      4.90897400
C           5.01135200     11.88104100      4.56721200
C           5.61293000     12.98424400      3.94646500
N           4.92893100     14.11062800      3.67132600
H           3.16766800     11.11766900      5.39234200
H           3.12307200     15.12716500      3.76355100
H           1.90272100     13.21488500      4.88386600
H           5.59100900     10.98663800      4.77639100
H           6.67588300     12.97841300      3.65769300
P           7.90882700     16.21768400      3.24027200
O           8.52388600     14.92251300      3.55412700
O           8.83067900     17.03516200      2.22833800
H           8.33222300     17.88972800      1.95219600
O           6.50306800     16.22670000      2.51905300
H           5.88821500     15.49781100      2.99757200
O           7.65176600     17.19706400      4.46527000
H           8.43135000     17.10583400      5.15009500
O           9.74182900     16.83140400      6.40662300
H          10.33174000     16.20136900      5.94797700
H           9.36145400     16.32137700      7.11897500
O          11.10906800     14.90616700      4.93254400
H          10.27516500     14.72125300      4.46381300
H          11.65313300     15.33624400      4.27160000
          25
 G =       -0.467701 Gcorr = 0.116724 a.u. Nimag =   0 Frame:    16 Step:    19 Geom:    19
C           4.38375300     13.89953000      2.57547400
C           3.41878800     12.90640200      2.77622200
C           3.60625500     11.99597100      3.81564300
C           4.73976800     12.10075100      4.61780800
C           5.66002100     13.12384100      4.35214600
N           5.48067600     14.00489500      3.35018800
H           2.87277600     11.21045000      3.99689600
H           4.29210400     14.64187500      1.77412700
H           2.54489200     12.84826000      2.13431000
H           4.91423500     11.40481300      5.43355400
H           6.57434700     13.24972800      4.95345600
P           8.79915000     15.62097000      3.81033600
O           8.49635800     15.12058600      5.15480600
O           9.66907100     14.56305400      3.00066700
H           9.93106800     14.98936100      2.10020900
O           7.54430900     15.96332000      2.90173400
H           6.80232500     15.22579600      3.04670900
O           9.66757900     16.94329200      3.67708500
H           9.21608700     17.69745400      4.24712400
O           8.36616100     18.93618800      5.26420500
H           8.12570800     18.40079900      6.04406900
H           7.53322100     19.12153600      4.83342800
O           7.53881500     17.05523100      7.18475800
H           8.00293200     16.35710100      6.69012800
H           6.61961100     16.79881700      7.13492100
          25
 G =       -0.470760 Gcorr = 0.119403 a.u. Nimag =   0 Frame:    17 Step:    20 Geom:    20
C           5.16809800     15.17541700      4.96671000
C           5.47877600     14.12601600      5.83960200
C           5.64020300     12.84501200      5.31505400
C           5.45754700     12.64066600      3.94781400
C           5.12984300     13.73822700      3.14516800
N           4.99115200     14.98417100      3.64405500
H           5.92710600     12.01793800      5.96344000
H           5.07886500     16.20944400      5.32169100
H           5.61994000     14.31984800      6.89927000
H           5.58564700     11.65662400      3.50978500
H           4.99453400     13.64174300      2.06125900
P           7.86792900     16.21514100      2.50239300
O           8.10601600     14.78913300      2.74053500
O           8.90284400     16.81331600      1.45363800
H           8.64723800     17.80531400      1.30174800
O           6.47464800     16.63174900      1.87084200
H           5.69706100     16.23206900      2.46491800
O           8.03389200     17.19994800      3.74466900
H           7.83879700     16.70509300      4.62953000
O           7.62843300     15.87380900      6.25924100
H           7.81207100     14.94799300      6.00799700
H           8.35540300     16.13114700      6.82071800
O           8.25192500     13.31325700      5.28613900
H           8.07033900     13.66564900      4.39645400
H           9.17169800     13.05129000      5.24733200
          25
 G =       -0.469078 Gcorr = 0.117018 a.u. Nimag =   0 Frame:    18 Step:    21 Geom:    21
C           3.82504600     14.49042900      3.74155800
C           2.98003600     13.38357500      3.87715200
C           3.55297200     12.11571000      3.97192900
C           4.93896500     11.98862900      3.92907800
C           5.71691500     13.14639600      3.79158900
N           5.16616100     14.37127200      3.70061500
H           2.92119700     11.23413500      4.07831000
H           3.43375600     15.51128300      3.66232700
H           1.90242800     13.51244100      3.90752800
H           5.41429900     11.01447500      3.99988400
H           6.81691500     13.10358800      3.75110600
P           8.39976500     16.12962200      3.04322700
O           8.79545300     14.80988800      3.54841300
O           8.49863300     16.17713500      1.45604900
H           8.24691400     17.12874000      1.15118700
O           6.93950200     16.61823300      3.41154100
H           6.30111200     15.77517500      3.47708100
O           9.28525900     17.38077600      3.46224000
H           9.41102900     17.37100100      4.50069400
O           9.75807000     17.17835400      6.27502000
H          10.17165500     16.29380300      6.23842600
H           8.92945100     17.03639300      6.73160300
O          10.69148500     14.60148000      5.79683300
H          10.02964700     14.50363900      5.08982000
H          11.52334100     14.66384100      5.32679000
