%nproc=24
%mem=50GB
#p M062X/6-311+G(2d,p) nosymm em=GD3 counterpoise=2

Title Card Required

0 1
C           2.37842200     12.17902500      9.58340200       1
C           2.16276800     10.79659700      9.50167000       1
C           1.74356500     10.11674300     10.64227300       1
C           1.55090400     10.82568700     11.82763000       1
C           1.78796400     12.20449100     11.82813600       1
N           2.19292600     12.86551600     10.72646300       1
H           1.56730300      9.04167100     10.61037500       1
H           2.71099100     12.76557200      8.71227400       1
H           2.32210700     10.27176300      8.56394700       1
H           1.22416800     10.32145000     12.73209600       1
H           1.65418600     12.81351400     12.72933500       1
P           3.91686600     15.93243200      9.54404500       2
O           3.97135700     15.05029300      8.37375500       2
O           3.72317500     17.44444200      9.13280200       2
H           3.72970700     18.04407100      9.99328000       2
O           2.79495300     15.68000900     10.63186100       2
H           2.60158800     14.63267500     10.66219000       2
O           5.20827100     15.90236100     10.49051500       2
H           6.07249600     15.83605700      9.92552500       2

