          44
 Energy =    -1521.93973630 a.u.  Frame:     1 Step:     1 Geom:     1
C           8.07603200     10.90345300      8.62722500
C           7.49910000      9.93939500      9.45202400
C           9.08655000     11.01250200     10.62957600
N           9.06009100     11.54526600      9.37199800
H           7.85636300     11.14931300      7.59798800
H           6.72282700      9.21826300      9.22885900
H           9.74959300     11.30938200     11.44165000
C           9.99785300     12.54202400      8.88953100
H          11.04450100     12.24620300      9.15049100
H           9.95826300     12.62199400      7.78213400
H           9.79685600     13.52944100      9.33867300
N           8.12957400     10.03061900     10.68955900
C           7.91097300      9.17538000     11.85429900
H           6.83962600      8.83271400     11.85446400
H           8.06206900      9.77620400     12.77985200
C           8.83425600      7.94422300     11.85506700
H           8.60269400      7.34421500     12.75957100
H           8.57411400      7.27001600     11.00626100
C          10.32145700      8.27901600     11.81292000
H          10.91652300      7.42856300     12.20578000
H          10.56931100      9.14241800     12.45515300
C          10.78712600      8.52720700     10.37902500
O          11.41762300      9.59069500     10.16229000
O          10.51673400      7.68326900      9.51005900
P          11.17606000      9.64161100      6.66091200
O           9.84891600     10.27030700      6.56104100
O          11.18644400      8.08338700      6.92342000
H          10.96166200      7.90377600      7.95425200
O          11.93627800      9.79965700      5.27059500
H          12.86816400      9.36554300      5.38312500
O          12.15022700     10.32479900      7.70370700
H          11.89421700      9.98443400      8.68785700
O           7.94260800      6.84153800      8.66538900
H           8.85770200      7.03119700      8.93925000
H           7.76621700      7.47180000      7.95078900
O          11.76703400     11.80846600     11.60202800
H          12.67257300     11.90238100     11.86941900
H          11.73220700     10.96232000     11.09537500
O           7.40434400      8.78233700      6.71346500
H           8.25801800      9.25328000      6.63446500
H           7.31789200      8.31528700      5.88240500
O           6.06320000      7.26999500     10.57975100
H           5.40323000      6.59532400     10.47033000
H           6.74291900      7.07080600      9.89799000
          44
 Energy =    -1521.94036750 a.u.  Frame:     2 Step:     2 Geom:     2
C           8.04576700     10.91726900      8.64520200
C           7.55401200      9.92926000      9.49440200
C           9.16380700     11.05392200     10.59077100
N           9.03906000     11.59811600      9.34268200
H           7.76685700     11.15390000      7.62853300
H           6.78993300      9.18205700      9.31318300
H           9.87479500     11.36523400     11.35894500
C           9.87064200     12.66911800      8.82621000
H          10.94905100     12.45332000      9.01075500
H           9.76007400     12.75904400      7.72280900
H           9.61249400     13.63355200      9.29515600
N           8.24989200     10.03713000     10.69603600
C           8.07485700      9.19521100     11.88007500
H           6.98120400      8.97174300     11.99522300
H           8.39657000      9.76633400     12.78259700
C           8.85206700      7.87186300     11.78465600
H           8.55431900      7.23642700     12.64495300
H           8.52718200      7.29400900     10.89014000
C          10.36613000      8.04687300     11.76286800
H          10.86786700      7.09161400     12.02052200
H          10.70425000      8.77973800     12.51980800
C          10.82832700      8.45114800     10.36677900
O          11.40856400      9.56082600     10.25409200
O          10.58895400      7.68212000      9.42105000
P          11.23038000      9.83369500      6.74365700
O           9.87912400     10.41099100      6.64557900
O          11.30838700      8.26613800      6.90511400
H          11.05772700      8.01095100      7.91938400
O          12.02096400     10.12390000      5.39192000
H          12.96813700      9.72367300      5.50264600
O          12.13958200     10.49546500      7.85838500
H          11.88298900     10.07731600      8.81153800
O           8.00635100      6.85043400      8.55878200
H           8.92218000      7.03233200      8.83589800
H           7.83453200      7.49223300      7.85299300
O          11.64800100     11.12772100     12.40137900
H          12.54426400     11.42343000     12.49557400
H          11.66059700     10.50368900     11.63250800
O           7.49403800      8.82130700      6.63339500
H           8.32963500      9.32823700      6.61600000
H           7.47265200      8.37853900      5.78492300
O           6.08282700      7.34331800     10.42743900
H           5.37189400      6.73541300     10.25868600
H           6.77908100      7.10140900      9.77677400
          44
 Energy =    -1521.94011180 a.u.  Frame:     3 Step:     3 Geom:     3
C           8.11270400     10.96912000      8.62799000
C           7.59305400     10.06682600      9.55285700
C           9.32036800     11.13740700     10.51652700
N           9.17977600     11.61629400      9.24356600
H           7.80450400     11.16927400      7.61172400
H           6.77742100      9.36382900      9.44257800
H          10.08210400     11.44243400     11.23694000
C          10.06572100     12.58700600      8.62859300
H           9.90585400     13.59388400      9.04968800
H          11.13176400     12.29604200      8.78026700
H           9.91064800     12.62255400      7.52750200
N           8.34514400     10.19479800     10.71833100
C           8.17027000      9.43309800     11.95543500
H           7.07209700      9.26890600     12.11814200
H           8.54661700     10.04047500     12.81187200
C           8.88357700      8.07139200     11.91656300
H           8.60470300      7.51239400     12.83444000
H           8.48554500      7.44771000     11.08446500
C          10.40036400      8.17208400     11.80425200
H          10.87324200      7.21640200     12.11032200
H          10.81114600      8.94320300     12.48315500
C          10.80490600      8.44570600     10.35912900
O          11.44613800      9.50404000     10.13509400
O          10.46344900      7.63135500      9.48597800
P          11.09565700      9.54715900      6.62868400
O           9.78468400     10.21420100      6.55949100
O          11.07162900      7.99186700      6.89562400
H          10.86453700      7.82378000      7.93641400
O          11.82754500      9.68704600      5.22118300
H          12.74889900      9.22600500      5.31128600
O          12.11078000     10.21142600      7.64603300
H          11.87674600      9.88069500      8.63866000
O           7.78121400      6.93187000      8.82173400
H           8.72218800      7.06719400      9.03126100
H           7.60293200      7.54174700      8.09056400
O          11.93420800     11.19371500     12.14135500
H          12.85485000     11.41963500     12.16990800
H          11.85423600     10.52167300     11.41871700
O           7.29496300      8.81131700      6.80305100
H           8.16338200      9.24720400      6.69657800
H           7.18201700      8.31519200      5.99216500
O           6.01065000      7.51271000     10.82927100
H           5.30338600      6.88168400     10.75778700
H           6.64440200      7.25766600     10.12484300
          44
 Energy =    -1521.93806890 a.u.  Frame:     4 Step:     4 Geom:     4
C           7.89752900     10.87353100      8.59449000
C           7.57734500      9.89081000      9.52836100
C           9.20588600     11.17082700     10.39824100
N           8.90094400     11.65617400      9.15568000
H           7.49752100     11.03993300      7.60490100
H           6.85430900      9.08986000      9.45641600
H           9.97444700     11.56363600     11.06770900
C           9.56792100     12.77812600      8.52155100
H           9.23321900     13.73425600      8.95828600
H          10.67384600     12.69529000      8.62864600
H           9.36829400     12.78896100      7.42695800
N           8.39176100     10.09542300     10.63919300
C           8.36716500      9.32606000     11.88651100
H           7.30022100      9.24914200     12.22223300
H           8.93840400      9.88706100     12.66881700
C           8.94236200      7.91021000     11.73242100
H           8.59055100      7.29862200     12.58982400
H           8.50974500      7.40582900     10.83895000
C          10.46351500      7.86750100     11.64499300
H          10.82850600      6.82868100     11.77525400
H          10.93808000      8.46189400     12.44723000
C          10.88977500      8.35843800     10.26679200
O          11.44293100      9.48451200     10.20052500
O          10.62928900      7.63457200      9.28876100
P          11.05803300      9.89259300      6.69786500
O           9.66203200     10.35954500      6.64094500
O          11.27845500      8.33756000      6.81087600
H          11.04882500      8.02945500      7.82357200
O          11.79246200     10.29655600      5.34256000
H          12.77058100      9.97054300      5.41861500
O          11.92618600     10.61007300      7.81346800
H          11.77426300     10.11969600      8.75166800
O           7.92933400      6.82449000      8.78910900
H           8.88077900      6.97885300      8.93720200
H           7.70874000      7.39910400      8.04116400
O          11.32687100     10.93574500     12.43966100
H          12.19443300     11.22622900     12.69014600
H          11.46482500     10.35743100     11.64264800
O           7.36660100      8.63052900      6.72325500
H           8.17323100      9.17912100      6.67787700
H           7.37334700      8.13837600      5.90212800
O           6.09725500      7.28522700     10.87188400
H           5.39359500      6.65077900     10.78454000
H           6.72660300      7.05875800     10.15809800
          44
 Energy =    -1521.93994720 a.u.  Frame:     5 Step:     5 Geom:     5
C           7.92222900     10.81254200      8.58884800
C           7.58088900      9.84840400      9.53414600
C           9.17684800     11.15688500     10.42233300
N           8.90390300     11.61419700      9.16205800
H           7.55167400     10.95424200      7.58412000
H           6.85940800      9.04330900      9.46442100
H           9.92339500     11.56859800     11.10473300
C           9.57619400     12.73295600      8.52790300
H          10.68058300     12.65651400      8.65426300
H           9.39450900     12.73314800      7.43022800
H           9.23022600     13.69169300      8.94996000
N           8.36299700     10.08064000     10.66232000
C           8.30965800      9.33521400     11.92285600
H           7.23558100      9.26675400     12.23513700
H           8.86463100      9.91040900     12.70687500
C           8.88585900      7.91499500     11.81153200
H           8.53356300      7.33015200     12.68725200
H           8.45670800      7.38439100     10.93436800
C          10.40758000      7.87017300     11.73345800
H          10.77008700      6.83137400     11.87137600
H          10.87663600      8.46789500     12.53674200
C          10.84829900      8.35438000     10.35739500
O          11.39764400      9.48304200     10.29378000
O          10.60602400      7.62526900      9.37960000
P          11.15510600      9.85285900      6.77669200
O           9.76765200     10.33457500      6.66195700
O          11.35011500      8.29571000      6.91430700
H          11.07939100      8.00212700      7.91930200
O          11.94468000     10.23058700      5.44519600
H          12.91626800      9.89776600      5.56349600
O          11.98991200     10.57055800      7.91644200
H          11.79047800     10.09536400      8.85472200
O           7.95904000      6.78623000      8.66214200
H           8.88789800      6.96377400      8.89481200
H           7.78197300      7.37174500      7.91067300
O          11.24149200     10.94810600     12.52307700
H          12.10458300     11.23840300     12.78872200
H          11.39335400     10.36532700     11.73230100
O           7.48130200      8.60345100      6.58168600
H           8.28111900      9.16333200      6.59188400
H           7.55142500      8.11350900      5.76223100
O           6.06828600      7.32518400     10.61132200
H           5.33000900      6.74169200     10.47273300
H           6.73080600      7.05254400      9.94061300
          44
 Energy =    -1521.93657870 a.u.  Frame:     6 Step:     6 Geom:     6
C           7.78671500     10.78165800      8.84454800
C           7.37982200      9.70817500      9.63425900
C           8.92040500     10.87967000     10.78055500
N           8.74296400     11.48595700      9.56926500
H           7.47177000     11.06278400      7.84968200
H           6.67413400      8.91814300      9.41035700
H           9.60995500     11.18768700     11.56052700
C           9.51045000     12.62562700      9.10301600
H           9.38378500     12.76883900      8.00863700
H           9.21690800     13.54803300      9.63237200
H          10.60269700     12.45783300      9.27556300
N           8.08208200      9.79336300     10.83314500
C           8.02325700      8.85766100     11.95473200
H           6.99460200      8.40361200     11.98975900
H           8.16459800      9.42095200     12.90508300
C           9.06486700      7.73126200     11.83814300
H           8.93997400      7.05878000     12.71229600
H           8.83436100      7.08392900     10.96057500
C          10.50716400      8.21879700     11.75198100
H          11.20496000      7.40189200     12.02958600
H          10.70934300      9.04294600     12.45713800
C          10.84393400      8.63865900     10.32209400
O          11.24830700      9.81486300     10.15657900
O          10.67887300      7.81472900      9.40860400
P          10.89877500     10.01663900      6.66925800
O           9.50323600     10.48484700      6.65926300
O          11.10344900      8.45690700      6.81929600
H          10.97843000      8.18753500      7.84732900
O          11.57638700     10.35897300      5.26962400
H          12.55526200     10.02839000      5.31754600
O          11.82849900     10.73859000      7.72622100
H          11.62962200     10.32638600      8.69765500
O           8.16037500      6.73490000      8.63173600
H           9.06319000      7.01239900      8.86784400
H           7.86844600      7.38235900      7.97247300
O          11.80767300     12.14338200     11.46137200
H          12.74873400     12.28035000     11.45350000
H          11.67859300     11.27683500     11.02654000
O           7.26842400      8.70516100      6.84689700
H           8.05403900      9.28039700      6.75380300
H           7.18889800      8.27864300      5.99366600
O           6.33353500      6.82752100     10.64644600
H           7.00328200      6.75007900      9.93123800
H           5.74523600      6.09387300     10.50980900
          44
 Energy =    -1521.93403270 a.u.  Frame:     7 Step:     7 Geom:     7
C           7.82667600     11.17149300      8.87945600
C           7.48860500     10.25636200      9.87337500
C           9.29392000     11.40220400     10.56849500
N           8.93291900     11.87977200      9.33795600
H           7.38176300     11.32947800      7.90703800
H           6.69478600      9.52270600      9.89464200
H          10.14958400     11.73345900     11.16022400
C           9.62133800     12.94810200      8.63734700
H           9.40853200     13.92543200      9.10343500
H          10.72276500     12.77845400      8.63562700
H           9.31607100     12.98450800      7.56807500
N           8.40554400     10.41659900     10.90985900
C           8.43589200      9.64719100     12.15550400
H           7.46552200      9.79980500     12.68434700
H           9.23992300     10.05819300     12.82348700
C           8.67645000      8.15031300     11.90703700
H           8.30533200      7.57592400     12.78214400
H           8.06173000      7.77962200     11.05393700
C          10.14692000      7.81462600     11.67136000
H          10.29146600      6.71121100     11.70247900
H          10.79193700      8.23046300     12.46765800
C          10.57574600      8.33189500     10.30567700
O          11.19916800      9.41993500     10.26426300
O          10.25289400      7.66579400      9.30178300
P          10.87244000      9.99684000      6.77588100
O           9.54619300     10.63620600      6.76674600
O          10.89584100      8.42099500      6.81488400
H          10.67662600      8.09551400      7.81561500
O          11.63377500     10.36177900      5.42574300
H          12.56111000      9.90554100      5.46604100
O          11.83862900     10.54771500      7.90513300
H          11.61926000     10.05852100      8.82721000
O           7.45912900      7.59625700      8.68526700
H           8.41777300      7.65464500      8.79257600
H           7.26417700      8.09307700      7.87978500
O          11.36916200     10.77297700     12.54855500
H          12.27168900     10.87308800     12.82252600
H          11.40152200     10.21938500     11.72382500
O           7.06282000      9.24227700      6.42313000
H           7.91024800      9.71779600      6.48052800
H           7.14320600      8.71684600      5.62725100
O           8.62534900      5.43264300     10.14705300
H           9.29376200      6.05759400      9.82941200
H           7.84182100      5.67677700      9.64765000
          44
 Energy =    -1521.93695120 a.u.  Frame:     8 Step:     8 Geom:     8
C           8.14169600     11.06511600      8.87141800
C           7.55135800     10.11096500      9.69707400
C           9.35491700     10.93946300     10.75747300
N           9.25650200     11.55764100      9.54335100
H           7.85157000     11.39681900      7.88451300
H           6.68692200      9.48386500      9.51715000
H          10.12931100     11.09922100     11.50154400
C          10.22292100     12.50850900      9.02655100
H          10.14598100     13.47830400      9.54678400
H          11.26334200     12.12139300      9.16202600
H          10.08488200     12.66141500      7.93467800
N           8.30659300     10.05915300     10.86579400
C           8.10077700      9.16636000     12.00526400
H           6.99907600      8.99717400     12.13386400
H           8.46293600      9.66893300     12.93137000
C           8.80625800      7.81224200     11.81945300
H           8.54979000      7.16823500     12.68618800
H           8.37926000      7.27270400     10.94244500
C          10.32052900      7.91866800     11.67219700
H          10.79762200      6.94339600     11.90074700
H          10.75605700      8.64442400     12.37991800
C          10.68769300      8.28309900     10.23473600
O          11.31248000      9.35757300     10.06272400
O          10.32956800      7.52168800      9.32243900
P          10.93274100      9.65366800      6.58323400
O           9.66997900     10.40975800      6.60766100
O          10.80234600      8.08503100      6.72228100
H          10.65259800      7.83913500      7.75290800
O          11.63717900      9.85678700      5.16979600
H          12.52196700      9.32146000      5.19206300
O          12.01874700     10.15042200      7.62089100
H          11.75563400      9.78581200      8.59625800
O           7.62090500      7.01128900      8.62500200
H           8.56856600      7.08626300      8.83318900
H           7.45131000      7.71906100      7.98591600
O          12.48079900     11.51443700     11.27201900
H          13.42564200     11.43639300     11.19373400
H          12.12976100     10.69501700     10.87181800
O           7.11109700      9.16226500      6.89789600
H           8.00038500      9.54868200      6.77033200
H           6.90020100      8.77604900      6.04789300
O           5.87681800      7.46484600     10.66563700
H           5.14287400      6.88025600     10.51489800
H           6.51242400      7.25702900      9.94689200
          44
 Energy =    -1521.92956490 a.u.  Frame:     9 Step:     9 Geom:     9
C           7.20108400     10.79848500      9.00173100
C           7.09140000     10.00332400     10.13756700
C           9.10238400     11.01310900     10.18681600
N           8.44769800     11.41709900      9.05607100
H           6.51327300     10.92857900      8.18069200
H           6.28850700      9.35151100     10.45044600
H          10.11602100     11.30185300     10.48405700
C           8.95246600     12.36320000      8.07955300
H           8.63700100     13.39176700      8.32769000
H          10.06596500     12.33630100      8.02284700
H           8.58179000     12.11306100      7.06058600
N           8.27134800     10.15634800     10.86225900
C           8.56554500      9.48848300     12.13174100
H           7.65269000      9.54532500     12.77288800
H           9.37283700     10.04917000     12.66841600
C           8.97084800      8.01989400     11.92837300
H           8.65456000      7.43536300     12.81699700
H           8.40091300      7.56505000     11.08555600
C          10.46725100      7.84359000     11.69712600
H          10.75047600      6.77715500     11.80894400
H          11.06296900      8.40138900     12.44491000
C          10.83971500      8.28165100     10.28466800
O          11.54537400      9.31434600     10.17428200
O          10.41571600      7.60952200      9.32903300
P          11.54424000      9.64324100      6.70192100
O          10.38177900     10.54741500      6.67191400
O          11.19840300      8.10371200      6.79809500
H          10.91475400      7.87798200      7.80578000
O          12.34020200      9.76880700      5.32734000
H          13.15030100      9.12885700      5.38689700
O          12.62759400      9.97628700      7.80192300
H          12.22380400      9.70746900      8.75842000
O           7.69409800      7.77861200      8.70557900
H           8.64146600      7.63913200      8.87818400
H           7.65177100      8.37852900      7.95301500
O          11.47122000     11.09326100     12.14544300
H          12.33983100     11.44296100     12.29795100
H          11.59521600     10.38538400     11.46144700
O           7.70008100      9.61786000      6.52452500
H           8.63179700      9.91627600      6.56992600
H           7.67166800      9.07295900      5.73774100
O           5.99956700      6.99074300     10.79623800
H           5.59247200      6.16763700     10.54571500
H           6.56191700      7.22732300     10.03871100
          44
 Energy =    -1521.92060760 a.u.  Frame:    10 Step:    10 Geom:    10
C           7.87927000     10.79274000      8.77239000
C           7.50012800      9.76504900      9.63042700
C           9.08444100     10.99449800     10.67583900
N           8.85776200     11.54704900      9.43310300
H           7.56617900     10.98708200      7.74880900
H           6.77557800      8.95816000      9.47936400
H           9.82780900     11.33907600     11.41756300
C           9.59026300     12.68788500      8.87621700
H           9.49411200     13.58159800      9.51375700
H          10.67620500     12.43367900      8.76451800
H           9.22740900     12.92892700      7.85733200
N           8.24920800      9.90149200     10.80682900
C           8.22258300      8.97498500     11.96160100
H           7.16120300      8.62721000     12.10040000
H           8.52902300      9.52607300     12.87925600
C           9.11354400      7.74516800     11.73323800
H           8.95659900      7.04557400     12.58114100
H           8.75496700      7.18447600     10.83095300
C          10.59852100      8.06088900     11.59014000
H          11.20455500      7.16024400     11.82806200
H          10.91980400      8.83283400     12.32550000
C          10.95447600      8.50747200     10.18435800
O          11.67942600      9.55197800     10.07750300
O          10.53359300      7.87338200      9.18758700
P          10.81899500      9.98077200      6.66402800
O           9.34775700     10.20187900      6.63047600
O          11.33697200      8.44920900      6.77481200
H          11.13637500      7.94295000      7.68363300
O          11.54626500     10.48457700      5.28614800
H          12.51101200     10.25777600      5.19033800
O          11.59827300     10.78239200      7.82924400
H          11.83094000     10.21308900      8.75102600
O           8.22038700      6.42640600      8.86076100
H           9.13037700      6.71323800      9.10628400
H           7.98963700      6.97945600      8.06962900
O          11.50554200     11.07714900     12.23184700
H          12.18249900     11.69098100     12.48075800
H          11.88021700     10.52622600     11.48917200
O           7.50495600      8.17465000      6.89818500
H           8.13923300      8.94138700      6.89070500
H           7.53705700      7.81810300      6.01418400
O           6.33449400      7.24235900     10.51439800
H           7.08334600      6.79669600     10.00421800
H           5.54903200      6.76320700     10.28427900
          44
 Energy =    -1521.91786800 a.u.  Frame:    11 Step:    11 Geom:    11
C           7.82588900     10.84714300      8.69324000
C           7.56705000      9.92211000      9.70000400
C           9.22923000     11.27919500     10.41225800
N           8.84984200     11.68726300      9.15165200
H           7.40137500     10.91627700      7.69614900
H           6.83961600      9.09672200      9.72264800
H          10.03693200     11.70350400     11.02911100
C           9.48218900     12.77355000      8.39675500
H           9.28616700     13.75378100      8.86164000
H          10.58709700     12.61081400      8.33414800
H           9.11310900     12.79019700      7.35073600
N           8.44049300     10.19797000     10.75914400
C           8.55358700      9.44157400     12.02895200
H           7.54553300      9.42457000     12.51178000
H           9.25514700      9.99061400     12.71090800
C           9.04121100      8.00404500     11.80718700
H           8.76988700      7.40302000     12.70154700
H           8.47700600      7.52281500     10.96576000
C          10.54315600      7.89314200     11.55754000
H          10.86437900      6.83384100     11.65293900
H          11.11407200      8.45441200     12.32773700
C          10.91691800      8.39017800     10.17302200
O          11.59545000      9.46637700     10.10152400
O          10.54450400      7.75163300      9.15900900
P          10.80228800      9.88003800      6.66590800
O           9.32723500     10.06425500      6.60700800
O          11.37520700      8.37175800      6.78023400
H          11.17324500      7.85103400      7.68580600
O          11.53848200     10.41879100      5.30515900
H          12.50062500     10.18301800      5.20443800
O          11.53258100     10.71521900      7.84343800
H          11.74871100     10.17103900      8.77456700
O           8.18042700      6.41892100      9.04061800
H           9.13477800      6.60671100      9.17444200
H           7.93338700      6.93693300      8.23253500
O          11.33394800     10.97787700     12.28287600
H          12.08347200     11.41225700     12.66763700
H          11.69036600     10.39013100     11.55695100
O           7.47007900      8.08338000      7.00325100
H           8.10450300      8.84759300      7.00709500
H           7.54205200      7.70938400      6.12816300
O           6.27937200      7.42915800     10.52017500
H           7.10113300      6.92699800     10.22316000
H           5.55828900      7.02077200     10.05116200
          44
 Energy =    -1521.90830610 a.u.  Frame:    12 Step:    12 Geom:    12
C           7.76278400     10.82973000      8.92988900
C           7.34576800      9.76247600      9.72132900
C           8.97510900     10.86682600     10.83627500
N           8.76102800     11.50971300      9.63581200
H           7.46472700     11.09637100      7.91914300
H           6.59609900      8.99090100      9.51707200
H           9.73987300     11.11773000     11.56809200
C           9.47327500     12.70157300      9.17661700
H          10.55911600     12.67051900      9.49009100
H           9.47232600     12.75538600      8.06811000
H           9.02295700     13.62278400      9.58068700
N           8.09350900      9.79905200     10.90390600
C           7.98677300      8.83234900     12.02086200
H           6.90600200      8.52594900     12.10360900
H           8.27081100      9.33706500     12.97045600
C           8.82675200      7.56874400     11.79078600
H           8.57774500      6.83975600     12.59130900
H           8.49637200      7.06792900     10.84232900
C          10.33340300      7.80392000     11.75738800
H          10.87146700      6.84466400     11.92424100
H          10.66426800      8.47368100     12.57674700
C          10.77055800      8.36683000     10.42095200
O          11.37502700      9.50477000     10.47302800
O          10.53047100      7.78250900      9.34882000
P          10.97973700     10.08302200      7.00989100
O           9.52301400     10.40526300      6.98792700
O          11.33247800      8.49048900      6.89534200
H          11.17507800      7.91645800      7.73663700
O          11.75417600     10.66829900      5.68938500
H          12.67569000     10.32518200      5.53507200
O          11.80707900     10.62902800      8.25140100
H          11.68136600     10.02469400      9.28818600
O           8.15159200      6.52195200      8.74799200
H           9.07690900      6.69838200      9.01939000
H           7.97895100      7.16022000      8.00394100
O          12.32944100     12.31842300      9.98825100
H          12.63492100     12.22212900      9.06848700
H          12.31644100     11.41297600     10.33606600
O           7.65608900      8.40290200      6.85577900
H           8.28460100      9.17144300      6.96683700
H           7.82479500      8.07212100      5.97652500
O           6.17816800      7.18559300     10.37659500
H           6.96945900      6.79970400      9.88367400
H           5.42381200      6.70051000     10.06508900
          44
 Energy =    -1521.91710700 a.u.  Frame:    13 Step:    13 Geom:    13
C           5.95805100     10.86726200     11.60768200
C           7.09516700     10.67531400     12.38919500
C           7.61557500     10.17561800     10.25680500
N           6.30556900     10.55189600     10.29802900
H           4.97612300     11.19611000     11.88973700
H           7.23455700     10.80996100     13.44503300
H           8.18797600      9.87210500      9.36215500
C           5.42540100     10.61892700      9.14628300
H           5.98628600     10.39449300      8.21274100
H           4.61383100      9.87077300      9.23463900
H           5.00111700     11.63624000      9.03924800
N           8.11110400     10.25616400     11.53506600
C           9.48228100      9.91871900     11.91068000
H           9.71148600     10.33296600     12.91595400
H          10.19035800     10.42931500     11.19182700
C           9.69616600      8.39475600     11.87676500
H           9.38029400      7.93538100     12.83047800
H           9.05875600      7.92336300     11.09474500
C          11.16186600      8.07989500     11.58517800
H          11.37716000      7.00950800     11.76342800
H          11.84797600      8.65155600     12.23196300
C          11.43219200      8.41173100     10.11174500
O          11.71236000      9.59948400      9.84139500
O          11.29319000      7.48786800      9.29006300
P          12.02762000      9.18188500      6.34147200
O          10.61231100      9.56330500      6.21827000
O          12.30509500      7.67244700      6.73762800
H          11.94290100      7.52639300      7.72646000
O          12.78698300      9.35950400      4.95646200
H          13.76838000      9.06723800      5.11206700
O          12.87895500     10.06159400      7.35442000
H          12.49462600      9.91004800      8.32902200
O           6.38614800      8.02282200      9.39518800
H           6.02830500      7.14106900      9.43573200
H           7.22355400      7.92378100      8.89847900
O           9.68740000     11.03494700      8.63369400
H           9.87912600     10.76839300      7.71950800
H          10.45028300     10.65776400      9.12513300
O           8.80486400      7.84496100      8.13003900
H           9.63879300      7.57788000      8.57121000
H           9.11011500      8.30407900      7.33993700
O           7.35771100     12.58454500      8.82689100
H           7.53598700     13.46176600      8.49940800
H           8.20602800     12.11618900      8.74817100
          44
 Energy =    -1521.88487930 a.u.  Frame:    14 Step:    14 Geom:    14
C           6.84393800     11.04045100     11.06722000
C           7.65087600     10.14689400     11.76080400
C           8.72979800     10.72982800      9.85583600
N           7.52714800     11.39675700      9.89299300
H           5.84411800     11.39242500     11.29210400
H           7.47199300      9.65229000     12.70147600
H           9.49993300     10.78112100      9.03143100
C           6.99395200     12.27145000      8.84761600
H           5.96318600     11.95189200      8.57176300
H           6.96977300     13.32367600      9.17450400
H           7.61771700     12.21567800      7.90903200
N           8.82059700      9.96362800     11.00170200
C           9.89475200      8.99303000     11.30132300
H          10.16966500      9.05661100     12.37775800
H          10.82413500      9.29340400     10.73194500
C           9.42782700      7.57748800     10.92155000
H           8.67673300      7.20861900     11.64831000
H           8.90199600      7.60699000      9.92871000
C          10.58564000      6.58168600     10.84098900
H          10.20734900      5.58845400     10.51506400
H          11.05138200      6.42377400     11.83651700
C          11.63929900      7.07430400      9.87463700
O          12.65946500      7.65678700     10.21883700
O          11.32776800      6.86771400      8.59995200
P          11.87247100      9.94364300      7.70175900
O          10.39905400     10.29981200      7.59157700
O          12.40635900      8.61753000      7.17086300
H          12.03368100      7.40865200      7.86652400
O          12.75993700     11.16433100      7.04315000
H          13.58958900     10.89664400      6.56949500
O          12.17237600     10.03867700      9.33104500
H          12.92310800      9.45959300      9.68899100
O           6.62655800      8.07561100      8.88279200
H           6.78113400      7.92879700      7.93425800
H           7.53334900      8.12335200      9.25422700
O           8.84817300     11.87194900      6.56310400
H           8.88521800     10.93159100      6.33912800
H           9.75233500     12.06918500      6.86436100
O           8.82858300      8.07990700      7.87547000
H           9.51620400      7.39479100      7.81097400
H           9.27294300      8.92178600      7.58911900
O           4.89653700     10.16675800      9.36220100
H           5.52018100      9.41553200      9.21222700
H           4.03318100      9.83692300      9.14668200
