          42
 Energy =  -1354.42020270 a.u.  #Cluster:    1
C          15.18364800      6.29705100      7.49343800
H          15.73267600      6.05969100      6.57139200
H          14.37751900      5.55650700      7.63878500
H          14.68167100      7.28238900      7.34099800
C          16.63956600      4.98058900      8.96096400
H          17.17057900      4.57442100      8.08438800
H          17.34627000      4.99697800      9.80916500
H          15.82330200      4.28251000      9.21788100
C          17.23598900      7.27993200      8.36242000
H          16.84866000      8.27189100      8.03224600
H          17.86033900      7.50770200      9.24808500
H          17.87149500      6.88636200      7.55929200
C          15.29882300      6.84137900      9.87971900
H          14.45394500      6.13170300     10.05373300
H          14.81846800      7.81173100      9.57615000
C          16.11337600      7.02239900     11.16676000
H          17.20453700      7.06918100     10.96651900
H          15.96317900      6.16417700     11.84667600
C          15.70270500      8.32257900     11.86233700
H          16.32081700      8.51036100     12.75763400
H          14.65431300      8.28880900     12.20823500
N          16.10261100      6.35430200      8.68514800
C          15.89934500      9.49071400     10.88299600
O          16.98239400      9.53843300     10.27546700
O          14.92695900     10.25872300     10.72689200
P          15.55509300     10.98331900      7.44272000
O          14.78720400      9.76453600      7.14981600
O          17.06935900     10.72142000      7.84739500
H          17.08773700     10.34681200      8.84779900
O          15.65070700     11.94853200      6.18951900
H          16.00978600     12.86870700      6.54605500
O          14.96931500     11.90483100      8.59885600
H          14.94758200     11.33203300      9.50618900
O          12.74553600      9.13865900      9.36780800
H          13.04836500      9.48648700      8.51710900
H          13.37390700      9.54672800     10.00218200
O          12.62179500      6.46607200      9.00253900
H          11.69977700      6.23925400      9.05824600
H          12.64411200      7.44221500      9.15017300
O          16.48301200     14.43712300      7.55101500
H          17.27429600     14.13092600      8.00289500
H          15.76927100     14.27184700      8.18238000
          42
 Energy =  -1354.41999020 a.u.  #Cluster:    2
C          15.48424900      6.09937200      7.60631900
H          16.09679300      5.57614100      6.86021100
H          14.56627000      5.51484300      7.80546400
H          15.14068100      7.05520900      7.14776200
C          16.83380900      5.06971700      9.36173500
H          17.46871600      4.59740100      8.59405200
H          17.45683400      5.22619900     10.25971600
H          16.03279000      4.35801900      9.62784500
C          17.36090800      7.33038900      8.56404900
H          16.95506300      8.26470700      8.10825200
H          17.87739700      7.67765400      9.48054400
H          18.09335800      6.90517800      7.86723600
C          15.30770900      6.93988600      9.91316100
H          14.41814600      6.27642500     10.00630000
H          14.90304600      7.90332200      9.49615000
C          15.96887300      7.16576700     11.28001900
H          17.07219000      7.25763100     11.19235500
H          15.77805500      6.30913100     11.95195100
C          15.44314500      8.45433100     11.91506500
H          15.98389400      8.69179100     12.84779900
H          14.37472600      8.36287900     12.19218000
N          16.25470200      6.36482500      8.87082800
C          15.64016600      9.61188800     10.92684700
O          16.73135800      9.68133900     10.33637000
O          14.65056100     10.35303400     10.73482300
P          15.18266000     10.75322800      7.34661700
O          14.67420300      9.40904400      7.05151400
O          16.68887600     10.77317700      7.88272700
H          16.72624600     10.43158400      8.88741500
O          15.26357200     11.65004700      6.04014600
H          15.90706000     12.44722600      6.26347500
O          14.35113700     11.62569200      8.36911900
H          14.46341000     11.18746100      9.34033200
O          12.42738900      8.80192900     10.54261400
H          11.69009200      9.39837300     10.44850100
H          13.21079600      9.39856000     10.64170400
O          12.90263000      7.28042600      8.25595400
H          13.20871600      7.99933700      7.69372200
H          12.60287700      7.74049000      9.05994600
O          17.30990600     13.61291000      7.00911200
H          16.85454100     14.03389600      7.74192200
H          17.67248100     12.79955500      7.38816400
          42
 Energy =  -1354.41986080 a.u.  #Cluster:    3
C          14.67873300      6.57970600      7.35547700
H          14.88938600      5.91547100      6.50686200
H          13.62985300      6.42571200      7.67119800
H          14.74961000      7.63150100      6.99003300
C          15.49335700      4.91467700      8.94571500
H          15.73793200      4.21014700      8.13675200
H          16.15018600      4.70259200      9.80491900
H          14.44833900      4.71275100      9.26878700
C          17.03008000      6.59084000      8.01817600
H          17.19241900      7.68050900      7.83351900
H          17.77699400      6.27221500      8.76128300
H          17.23161900      6.06941700      7.07019400
C          15.26194000      7.27015500      9.63700000
H          14.28055700      6.94435700     10.05958700
H          15.07945700      8.28915100      9.19928700
C          16.29677400      7.35842200     10.76106800
H          17.29473400      7.66295600     10.37609400
H          16.42707800      6.39072300     11.27374000
C          15.83027100      8.42656100     11.75747300
H          16.51718900      8.49086300     12.61954500
H          14.82790800      8.21059600     12.16242500
N          15.63085400      6.34038500      8.49656500
C          15.83623700      9.77085700     11.01155700
O          16.93382400     10.26018600     10.72669500
O          14.71473500     10.23353400     10.68223800
P          15.83443300     10.91089400      7.46459600
O          15.77381800      9.48279000      7.12787100
O          17.13268200     11.38012700      8.25689500
H          17.10266200     10.98495900      9.24478600
O          15.86381400     11.81115000      6.15717200
H          16.15380000     12.77267800      6.46099500
O          14.60018500     11.47005100      8.28696900
H          14.64469200     11.06678400      9.27750400
O          12.64026500      8.78264100      9.89650800
H          13.38655100      9.29012500     10.32962600
H          12.34183500      9.37424400      9.21070900
O          12.34345300      6.02379800      9.65910100
H          11.53640000      5.78036300     10.10210600
H          12.38710600      7.00018700      9.74047800
O          16.86536600     14.33131200      7.35723100
H          16.17734500     14.50696500      8.00523800
H          17.49555800     13.76666000      7.82603700
          42
 Energy =  -1354.41933030 a.u.  #Cluster:    4
C          15.24955600      6.37834300      7.37225900
H          15.82822600      6.08087600      6.48747600
H          14.36434800      5.72100700      7.47108600
H          14.85217700      7.40444500      7.18739400
C          16.56194400      4.95560200      8.87552400
H          17.14540700      4.56618500      8.02506700
H          17.20095500      4.91222300      9.77477800
H          15.70545500      4.27762400      9.03853200
C          17.27603300      7.25150300      8.40260500
H          16.94518100      8.27019600      8.09243100
H          17.85417200      7.41990600      9.33153400
H          17.94299300      6.86644200      7.62102900
C          15.23232200      6.83035000      9.77926500
H          14.35940500      6.14103000      9.87939600
H          14.79784700      7.82251500      9.47815100
C          15.97085000      6.94916300     11.11838800
H          17.07326800      6.96508400     10.98673800
H          15.75219600      6.07830300     11.76271500
C          15.55864000      8.24312700     11.82481900
H          16.13161200      8.39074000     12.75688500
H          14.49227200      8.23217500     12.11166300
N          16.09294500      6.35758800      8.61922700
C          15.84253300      9.42697500     10.88646600
O          16.96636100      9.46627500     10.35747500
O          14.89565500     10.21358000     10.67626600
P          15.78938600     11.05532500      7.48063900
O          15.00436900      9.88076700      7.07439200
O          17.25941500     10.71874900      7.98119900
H          17.19317100     10.31300600      8.96710800
O          16.01118100     12.07121600      6.28483400
H          16.36941600     12.96214200      6.71006700
O          15.15021000     11.94570600      8.63299900
H          15.03999300     11.33489700      9.50823100
O          12.80667100      9.19150900      9.08974800
H          13.18447900      9.56895700      8.28204800
H          13.38472200      9.56366200      9.79001500
O          12.66211600      6.53394500      8.60818200
H          11.73419700      6.32645900      8.57411300
H          12.69075200      7.50382900      8.79402800
O          16.82461400     14.46165000      7.82494900
H          17.57067400     14.10427000      8.31462500
H          16.06231100     14.29266700      8.39567500
          42
 Energy =  -1354.41909080 a.u.  #Cluster:    5
C          15.11938700      6.38162600      7.55974500
H          15.62166400      6.16459200      6.60716900
H          14.33474600      5.62191000      7.74143500
H          14.58734100      7.35607400      7.44456900
C          16.76286400      5.11244900      8.86373500
H          17.29880700      4.81684100      7.94651100
H          17.49270600      5.13409700      9.69189700
H          16.01982500      4.32737700      9.08954700
C          17.13169400      7.48263600      8.36945600
H          16.64569300      8.45938400      8.13974700
H          17.80544400      7.69858500      9.22022700
H          17.72982200      7.19835400      7.49407000
C          15.32974900      6.79284700      9.96649900
H          14.60001400      5.97606500     10.17020100
H          14.71010700      7.70262700      9.73735000
C          16.20354200      7.03706000     11.20404700
H          17.27349200      7.17440500     10.94083500
H          16.16787700      6.16520900     11.88279700
C          15.72914200      8.29335400     11.93842400
H          16.37947600      8.52137200     12.80141100
H          14.70745300      8.17333600     12.34004700
N          16.09938600      6.44854900      8.70076000
C          15.77986500      9.48174900     10.96546600
O          16.84785900      9.65203700     10.34916400
O          14.72974700     10.13772200     10.82115600
P          15.25436100     11.11376600      7.59033100
O          14.56216300      9.86985000      7.22662900
O          16.78622600     10.92276400      8.00049700
H          16.84314800     10.50136600      8.98064600
O          15.33266500     12.13822100      6.38283500
H          16.08494800     12.82811300      6.62455200
O          14.60863300     11.93575700      8.77972800
H          14.63665500     11.30943700      9.65024000
O          12.63124100      8.93811200      9.39687900
H          12.91144300      9.35204900      8.56789700
H          13.22279900      9.35813000     10.05667300
O          12.60029800      6.28179200      8.88238000
H          11.68308400      6.02928200      8.89505700
H          12.59308000      7.24479100      9.09224200
O          17.66786100     13.74802900      7.35877600
H          17.31453200     14.13707200      8.16214000
H          17.94918100     12.86122400      7.62625000
          42
 Energy =  -1354.41891050 a.u.  #Cluster:    6
C          15.18778400      6.24836000      7.43595700
H          15.73872200      6.00941800      6.51560000
H          14.43214500      5.46548100      7.62349300
H          14.61913200      7.19257400      7.25716300
C          16.72711900      5.07817700      8.93566000
H          17.23173200      4.64230100      8.05773200
H          17.47197900      5.17265900      9.74550800
H          15.95451900      4.36442800      9.27186500
C          17.19828400      7.38454500      8.23618600
H          16.83798300      8.11365300      7.47641700
H          17.50982600      8.01991200      9.10098700
H          18.08584400      6.89019200      7.82642300
C          15.30130400      6.90132700      9.79276200
H          14.45523000      6.19171800      9.96253800
H          14.82385200      7.87060500      9.48177600
C          16.10654800      7.07835100     11.08623700
H          17.19540100      7.17628300     10.88802000
H          15.99238000      6.19571900     11.74125600
C          15.64010100      8.33958200     11.81712200
H          16.22840300      8.51075000     12.73571700
H          14.58378300      8.26639800     12.13073400
N          16.11839800      6.41115100      8.60889000
C          15.83580200      9.54186900     10.88164800
O          16.94732100      9.65356900     10.33574200
O          14.84165800     10.27296400     10.68905200
P          15.50287200     10.89594100      7.39696000
O          14.70531900      9.69125000      7.12668700
O          17.01015500     10.58646700      7.80070800
H          17.03651000     10.32204400      8.83205300
O          15.63099500     11.82603300      6.12035500
H          16.03294400     12.73783600      6.45139900
O          14.94856300     11.86261600      8.52864100
H          14.89935500     11.31164600      9.45148700
O          12.66941700      9.10428600      9.35722600
H          12.95198800      9.46259300      8.50391600
H          13.30122600      9.51970000      9.98352400
O          12.63569100      6.44372000      8.88856400
H          11.71948200      6.19062900      8.92230800
H          12.62943200      7.41338900      9.07604000
O          16.59845600     14.30158700      7.41200800
H          17.37215400     13.96282800      7.87150000
H          15.88022400     14.20546400      8.05215700
          42
 Energy =  -1354.41890690 a.u.  #Cluster:    7
C          14.79354300      6.77669800      7.04964200
H          15.03672500      6.19777200      6.14910300
H          13.73872100      6.58304400      7.32078200
H          14.86353800      7.85954200      6.78602300
C          15.60446000      4.97440700      8.48648500
H          15.91004200      4.36352500      7.62403700
H          16.22716200      4.69558200      9.35198000
H          14.55341500      4.71109600      8.73505800
C          17.12398500      6.76651700      7.78516200
H          17.27411800      7.87573200      7.73288800
H          17.85649500      6.37280400      8.50474400
H          17.35816700      6.37000600      6.78605500
C          15.28459500      7.23753200      9.40772700
H          14.33159000      6.80305900      9.79521700
H          15.02490800      8.27503400      9.06364400
C          16.31223700      7.30002800     10.53997700
H          17.28538200      7.70877000     10.18828200
H          16.51365700      6.30129900     10.96234000
C          15.77274400      8.23611400     11.62841700
H          16.42612000      8.22580500     12.51844800
H          14.76450200      7.94349200     11.96846900
N          15.71753900      6.44225700      8.18992200
C          15.75723700      9.65196700     11.03121400
O          16.83374600     10.24655000     10.93219000
O          14.64469300     10.07143000     10.61394600
P          16.09728900     10.96026700      7.57863600
O          16.12157700      9.54222100      7.19126400
O          17.28682200     11.43857100      8.52188500
H          17.15473200     11.02070400      9.48995700
O          16.24188900     11.90422800      6.31028700
H          16.47156500     12.86185100      6.67306300
O          14.76164500     11.45119600      8.27463700
H          14.68762100     10.97582400      9.22938300
O          12.59199100      8.46140300     10.32452100
H          13.40007200      9.04809000     10.48410300
H          11.89652200      9.08339700     10.15122600
O          12.42573200      5.91275000      9.21725000
H          11.62880400      5.52793100      9.56715300
H          12.44585500      6.82271400      9.58551400
O          17.04380500     14.40417200      7.68021500
H          16.29250600     14.54787000      8.26232400
H          17.64228300     13.84676100      8.19684400
          42
 Energy =  -1354.41869790 a.u.  #Cluster:    8
C          15.26604000      6.41332800      7.35323700
H          15.68178900      5.72394200      6.60676400
H          14.19197700      6.17108800      7.49584500
H          15.30772300      7.44130300      6.93071000
C          15.91755400      4.92929100      9.17848100
H          16.37848800      4.20943700      8.48565600
H          16.40985200      4.83485200     10.16000000
H          14.85232300      4.64054700      9.31012300
C          17.45069700      6.68695600      8.41846300
H          17.55838000      7.77971500      8.19753900
H          18.07402400      6.47410400      9.29964000
H          17.86203100      6.14535700      7.55397200
C          15.36279800      7.28653400      9.64379800
H          14.36756800      6.87079700      9.93332900
H          15.14772600      8.24701500      9.10181100
C          16.18251300      7.56680300     10.90546900
H          17.16958500      8.01735600     10.65815100
H          16.38060500      6.64480500     11.47727700
C          15.40703000      8.56706800     11.77124500
H          15.89826500      8.70613500     12.75044400
H          14.37587400      8.23145800     11.97606000
N          16.01357300      6.33442500      8.65721200
C          15.40435700      9.90433200     11.01418700
O          16.42417000     10.59567400     11.06272900
O          14.37475700     10.15975000     10.33306900
P          16.37506100     10.86405500      7.56134600
O          16.58519100      9.42544100      7.35650000
O          17.29753900     11.55581300      8.65953300
H          16.99501400     11.23369500      9.62389500
O          16.71189600     11.68772600      6.24572300
H          16.78865800     12.69383400      6.53154000
O          14.88873400     11.29147000      7.90836800
H          14.64876400     10.91459500      8.87725900
O          12.46460900      8.40044700     10.02405800
H          11.73883500      8.95466800      9.76757700
H          13.22257000      9.05695400     10.17812300
O          12.67615800      5.84999400      8.97637400
H          11.81698400      5.45304400      9.07225500
H          12.56966100      6.76622800      9.32135700
O          17.02427200     14.38069600      7.45340800
H          16.15878700     14.50443900      7.85251600
H          17.53760700     13.92484600      8.13497300
          42
 Energy =  -1354.41862020 a.u.  #Cluster:    9
C          15.08792800      6.64038100      7.31149200
H          15.42195800      5.96319100      6.51447600
H          13.99507900      6.52593900      7.43834800
H          15.26261400      7.68670800      6.96277700
C          15.56880200      4.95415000      9.01313900
H          15.95667500      4.24585400      8.26595900
H          16.04158300      4.73378100      9.98395300
H          14.47854500      4.76806700      9.12487200
C          17.28277600      6.59115700      8.38496200
H          17.50814200      7.68093900      8.25332400
H          17.87770400      6.23687200      9.23936600
H          17.63320400      6.08498800      7.47326800
C          15.26166500      7.31097100      9.66396100
H          14.23788800      6.96357200      9.94359600
H          15.11831800      8.31986500      9.19091200
C          16.11781000      7.43804200     10.92611800
H          17.15480800      7.76260300     10.68706500
H          16.19410400      6.47833500     11.46423800
C          15.48628800      8.50339900     11.83069200
H          16.00389800      8.55273500     12.80477000
H          14.42394900      8.29377300     12.04357900
N          15.81509600      6.37771900      8.60298700
C          15.64258000      9.85077200     11.10855100
O          16.75413100     10.38223600     11.11055800
O          14.62472000     10.27669300     10.49593900
P          16.56497600     10.78623500      7.64132600
O          16.55314600      9.33685300      7.39499800
O          17.65583300     11.29566000      8.67156800
H          17.35636000     10.99444600      9.64715200
O          16.88956500     11.59009100      6.31103000
H          16.64881500     12.59357900      6.49985000
O          15.18221500     11.41255800      8.11777300
H          14.93566900     11.03031300      9.08426900
O          12.53855400      8.73808600     10.07761100
H          11.90825000      9.36958700      9.75434500
H          13.35091900      9.30189100     10.28958900
O          12.38355900      6.11106000      9.17080700
H          11.52322000      5.79751700      9.42977300
H          12.40521300      7.04865200      9.46158900
O          15.94797900     14.27648700      7.14404000
H          15.18310200     13.81246300      7.51093600
H          16.51237700     14.44179100      7.90446000
          42
 Energy =  -1354.41848400 a.u.  #Cluster:   10
C          14.97223000      6.64329400      7.22164300
H          15.27003400      5.98825100      6.39316300
H          13.89598900      6.47688000      7.43318100
H          15.06946900      7.69916100      6.87387900
C          15.66622100      4.96178800      8.85086400
H          16.05218800      4.28498700      8.07394900
H          16.20186100      4.75779300      9.79199200
H          14.59470800      4.71352900      9.01352200
C          17.24294900      6.69181700      8.11959000
H          17.40082400      7.79200500      7.98049100
H          17.91999200      6.36233300      8.92111600
H          17.54567800      6.20901500      7.17836100
C          15.29563700      7.28754100      9.57011200
H          14.35802200      6.84195700      9.97630500
H          14.99446000      8.27072200      9.11732600
C          16.27909300      7.51936400     10.71986100
H          17.22657100      7.98073400     10.36179100
H          16.54790100      6.57539600     11.22252800
C          15.63050100      8.48617300     11.71844600
H          16.23858100      8.57267400     12.63611900
H          14.62578100      8.15353600     12.03064400
N          15.80951300      6.40201200      8.44847700
C          15.56069700      9.85833700     11.02949900
O          16.59355500     10.53125500     10.98342800
O          14.46112200     10.16290200     10.49378700
P          16.15093100     10.86637700      7.52403200
O          16.27482800      9.42192500      7.28112600
O          17.22667900     11.49865400      8.51195300
H          17.02272800     11.17442300      9.50272300
O          16.36408500     11.69334800      6.18534000
H          16.51621700     12.69183500      6.46940500
O          14.73552200     11.34598700      8.05052200
H          14.58949500     10.94868300      9.03094200
O          12.52489000      8.40155500     10.30903600
H          11.75457000      8.95398500     10.33937300
H          13.29098100      9.05934800     10.39263900
O          12.40120100      5.99444800      8.87963600
H          11.48823800      5.72722800      8.89075700
H          12.42119600      6.84690200      9.36471800
O          16.92466500     14.35278600      7.36334600
H          16.11935000     14.50893900      7.86439100
H          17.50087900     13.88013300      7.98000800
          42
 Energy =  -1354.41841900 a.u.  #Cluster:   11
C          14.65745000      6.63466400      7.35165800
H          14.88326100      5.97193900      6.50665200
H          13.59689900      6.48936400      7.64197900
H          14.74974000      7.68733800      6.99321900
C          15.42626500      4.95013300      8.94492300
H          15.72094500      4.25615700      8.14359400
H          16.03787600      4.73680400      9.83640700
H          14.36748100      4.73686900      9.20675900
C          16.98945200      6.63010200      8.08181300
H          17.16876900      7.72547400      7.92907700
H          17.71425400      6.28256900      8.83219600
H          17.20832400      6.13942300      7.12174900
C          15.16904800      7.29416500      9.65885700
H          14.21590200      6.91142500     10.09757200
H          14.91861300      8.29795800      9.22065100
C          16.21176000      7.44932800     10.76831700
H          17.18505400      7.81130300     10.36873400
H          16.40744000      6.49184300     11.27945300
C          15.69726500      8.48950000     11.77095600
H          16.35632800      8.54614400     12.65509100
H          14.68595700      8.24815500     12.14115500
N          15.57643800      6.38179500      8.51627600
C          15.70480100      9.84620900     11.04943700
O          16.78997700     10.41392400     10.90192700
O          14.59946600     10.24399500     10.59232800
P          16.07502300     10.81559700      7.49161400
O          16.06312800      9.36717700      7.24114900
O          17.27731900     11.35216800      8.38657000
H          17.13354000     11.03601200      9.39031500
O          16.24287200     11.63114800      6.13965600
H          16.49960700     12.61195300      6.41007100
O          14.75302900     11.40492000      8.13549800
H          14.66329500     11.01796900      9.12757200
O          12.51865000      8.65374300     10.51932000
H          13.34202300      9.24127200     10.58085600
H          11.81085300      9.27558500     10.40679800
O          12.30053700      6.16182900      9.32925700
H          11.42743400      5.84694300      9.53789000
H          12.34606200      7.06063600      9.72730800
O          17.11739800     14.22748800      7.26779500
H          17.69903100     13.70201800      7.83469500
H          16.37147000     14.44697500      7.83286700
          42
 Energy =  -1354.41812620 a.u.  #Cluster:   12
C          14.83158600      6.83098100      7.05018300
H          15.04836500      6.24400100      6.14866800
H          13.75861700      6.70850400      7.30293100
H          14.98006900      7.90805800      6.79940300
C          15.48388000      4.96415600      8.48415400
H          15.76799500      4.33898700      7.62448800
H          16.06214400      4.63615200      9.36297600
H          14.41025400      4.77598900      8.70089800
C          17.14200000      6.64517200      7.82437400
H          17.37455300      7.74060300      7.78602900
H          17.83123200      6.19051800      8.55061100
H          17.36241100      6.24260700      6.82448600
C          15.31369200      7.23622900      9.42151700
H          14.33433200      6.85644900      9.80088800
H          15.11778700      8.28862700      9.08018000
C          16.33468800      7.23400500     10.56161000
H          17.33271100      7.58716800     10.21923000
H          16.47472700      6.22328600     10.98012900
C          15.84225600      8.19482600     11.65074900
H          16.48199100      8.13582100     12.54882000
H          14.81304600      7.96497400     11.97619200
N          15.70872300      6.42234700      8.20270800
C          15.92602000      9.61302900     11.06536400
O          17.03552300     10.14292400     10.98981500
O          14.84634600     10.10305200     10.63163600
P          16.43479800     10.90380500      7.62875600
O          16.36275500      9.48833600      7.23870300
O          17.65456800     11.29562600      8.56172500
H          17.47046500     10.89864500      9.53098400
O          16.60954900     11.84045400      6.35843100
H          16.41340000     12.82027200      6.67813000
O          15.13477500     11.48817000      8.33593800
H          14.99686800     11.00331300      9.27707100
O          12.70411300      8.61623400     10.37199200
H          13.54855800      9.16090500     10.50425200
H          12.02390300      9.27473500     10.30922100
O          12.40709500      6.27502700      8.92153800
H          11.51612900      5.98091900      9.07852700
H          12.48254400      7.12420300      9.41295500
O          15.82725100     14.42863600      7.57578000
H          16.48360100     14.50956000      8.27346800
H          15.10471200     13.93271300      7.98450900
          42
 Energy =  -1354.41515420 a.u.  #Cluster:   13
C          15.27651800      6.40228400      7.39073800
H          15.77819500      5.85548900      6.58139100
H          14.24585900      6.02122900      7.50960900
H          15.16784900      7.46316400      7.05800800
C          16.23951900      4.87351000      9.02743600
H          16.82249200      4.35097700      8.25071900
H          16.77203000      4.76101800      9.98747300
H          15.26607800      4.36120700      9.12426400
C          17.38937600      6.98172300      8.49916100
H          17.37897800      8.03122700      8.88772800
H          18.19175400      6.45513300      9.03069400
H          17.66440100      7.07239400      7.43221700
C          15.24556900      7.00961600      9.77132200
H          14.25315100      6.51530200      9.87589400
H          14.99681400      8.03990400      9.39777100
C          15.97958900      7.06558700     11.11777500
H          17.08175100      7.08864100     10.98371400
H          15.75494500      6.16840600     11.72304200
C          15.58081500      8.32440600     11.89359300
H          16.18654900      8.43188200     12.81102000
H          14.52536900      8.28246700     12.22064200
N          16.04886900      6.32200800      8.67873200
C          15.82491300      9.54054400     10.99127100
O          16.98532100      9.75087100     10.61011600
O          14.81170500     10.18601900     10.62369900
P          16.23527700     10.63024600      7.32368100
O          16.68564100      9.32723300      6.83198100
O          17.11323400     11.34086000      8.43831400
H          17.11763100     10.74935400      9.33208200
O          16.15174100     11.71667200      6.17451200
H          16.05098300     12.64985100      6.64457900
O          14.74640800     10.56234400      7.90497300
H          14.76964800     10.54935000      8.95338600
O          12.62594900      8.67436600     10.63032700
H          11.88132700      9.21938600     10.85821800
H          13.41518100      9.28702200     10.68083500
O          12.97469700      8.02681400      7.97054800
H          13.36532300      8.86310500      7.69431800
H          12.69202200      8.19683400      8.88345600
O          16.07073800     14.16715800      7.83971600
H          16.78747100     13.76728200      8.35146600
H          15.28835200     14.02713300      8.37959600
          42
 Energy =  -1354.41437370 a.u.  #Cluster:   14
C          14.83662000      6.37098900      7.40882800
H          15.27709200      6.08911700      6.44223100
H          13.93680100      5.76133000      7.59718800
H          14.47948700      7.42579200      7.31468400
C          16.15009300      4.79492700      8.74564500
H          16.54750200      4.33267300      7.82676100
H          16.90418300      4.66938200      9.54198300
H          15.24811400      4.23356800      9.04506600
C          17.08478100      6.97348000      8.14042900
H          16.86280300      8.03766700      7.89180400
H          17.81480600      7.03281200      8.96931400
H          17.56184100      6.52298000      7.26067800
C          15.20837000      6.82645800      9.78933200
H          14.28228800      6.25284200     10.02258600
H          14.85927700      7.86614900      9.53810600
C          16.14361200      6.84376600     11.00630900
H          17.20637000      6.70474700     10.71541000
H          15.90325600      6.01110300     11.69252800
C          16.02714400      8.17970700     11.74242900
H          16.75382100      8.24525500     12.57159100
H          15.02785200      8.31224400     12.19502300
N          15.83335200      6.24669000      8.52983300
C          16.31379300      9.31890900     10.75389500
O          17.31144700      9.20987200     10.02488300
O          15.47277000     10.24418000     10.71394600
P          15.91351300     10.85649600      7.25099900
O          15.39337500      9.59200100      6.72828800
O          17.39634100     10.80758300      7.81433300
H          17.40985000     10.23023300      8.70885200
O          15.95935500     11.99003000      6.14319100
H          16.07970000     12.90218400      6.64637000
O          15.03875500     11.52628600      8.40887700
H          15.28557300     11.08996200      9.34651100
O          12.95182100      9.72143000      9.80950900
H          13.78828000      9.86577800     10.30847500
H          13.02956000     10.35830000      9.08894400
O          12.46346700      7.24265900      8.80957500
H          11.51699000      7.22838000      8.71554200
H          12.65587800      8.14187300      9.16517100
O          16.09724700     14.37221300      7.91580800
H          16.91142900     14.20996000      8.39881800
H          15.42142500     13.89800800      8.42027400
          42
 Energy =  -1354.38803440 a.u.  #Cluster:   15
C          15.30548000      6.54639100      7.42849200
H          15.80429000      6.04001400      6.59495300
H          14.27418000      6.14671900      7.54398900
H          15.16706400      7.62649500      7.13520200
C          16.29354800      4.98199800      9.05139100
H          16.80720900      4.44951200      8.23385900
H          16.89722300      4.85547200      9.96489700
H          15.32259800      4.47887500      9.21758600
C          17.42720900      7.11662500      8.54397400
H          17.30854100      8.16981700      8.16259400
H          17.96139100      7.23105300      9.50622500
H          18.07085800      6.59117300      7.82758100
C          15.28238300      7.11803600      9.82766500
H          14.29647600      6.59018200      9.93232400
H          15.00977500      8.14832600      9.45394800
C          15.99539000      7.17782900     11.18211600
H          17.10376400      7.17048600     11.05698000
H          15.74379300      6.28924700     11.79248300
C          15.61006900      8.44919800     11.94445300
H          16.11111700      8.47999400     12.93318400
H          14.52137000      8.48606400     12.15550200
N          16.08798100      6.44499800      8.71775900
C          16.02722900      9.66215100     11.13148600
O          17.18719300      9.83213500     10.74758500
O          15.03569600     10.44966900     10.82355900
P          15.91238700     10.67794100      7.74947600
O          15.02595500      9.46356400      7.69410800
O          17.43231200     10.14396500      8.12991500
H          17.72873800     10.32387600      9.09691200
O          16.07346700     11.48652400      6.35866600
H          16.17013800     12.54439600      6.48404800
O          15.55896200     11.79883000      8.80457000
H          15.31139700     11.35948800      9.99396700
O          12.81205300      9.17330000      9.01767100
H          13.33140900      9.41580800      8.20306400
H          13.32347300      9.54605400      9.75272900
O          12.64816600      6.52402100      8.81668200
H          11.73737800      6.26097600      8.83001300
H          12.64011700      7.53254300      8.87255300
O          15.87403200     13.82547200      7.48401600
H          14.94256300     13.66895100      7.72497800
H          16.35565700     13.58184600      8.30684900
          42
 Energy =  -1354.38631400 a.u.  #Cluster:   16
C          14.59658400      6.63805600      7.27992600
H          14.75896500      5.99527100      6.40600700
H          13.55735700      6.48727400      7.64218900
H          14.67776600      7.70376800      6.93557700
C          15.44473600      4.94324800      8.85089500
H          15.58501700      4.22298300      8.03057900
H          16.15869700      4.69674300      9.65211200
H          14.41655800      4.79370600      9.25745300
C          16.98967600      6.60422200      7.82648000
H          17.07596600      7.67360700      7.48432500
H          17.77064800      6.44593500      8.58472000
H          17.20081200      5.96660000      6.95713000
C          15.32811000      7.33564200      9.52790900
H          14.27581800      7.18986800      9.88804600
H          15.34509500      8.37243200      9.07546600
C          16.30722400      7.26042200     10.70157500
H          17.34880000      7.43636300     10.35404200
H          16.29025500      6.26276100     11.17920300
C          15.95622800      8.32955600     11.74665800
H          16.74571400      8.37861400     12.52315500
H          15.01443500      8.08569700     12.27486300
N          15.60360000      6.36996300      8.38034600
C          15.82921600      9.68497100     11.06236900
O          16.90365100     10.22914600     10.65695200
O          14.68422300     10.16058500     10.86514600
P          15.50524300     10.77341300      7.67953800
O          15.79034000      9.34038400      7.38337700
O          16.52855500     11.62182400      8.58802000
H          16.80365000     11.16927800      9.63315100
O          15.35853200     11.74117500      6.39471400
H          15.67460400     12.74885300      6.56452100
O          14.08856300     10.88063600      8.51679600
H          14.19311200     11.10192000      9.53153000
O          12.71547000      8.76662900      9.86521500
H          13.18206000      9.19015000     10.62560000
H          12.89449900      9.35698400      9.11011100
O          12.51863300      6.06887500      9.41198100
H          11.60614300      5.82343800      9.52471600
H          12.56752800      7.03416900      9.66464900
O          16.62187000     13.76175300      7.45050400
H          16.22474300     13.71456700      8.34225400
H          17.43133800     13.21853000      7.54021500
