%nproc=24
%mem=50GB
#p M062X/6-311+G(2d,p) nosymm em=GD3 counterpoise=5

Title Card Required

0 1
P           7.61549800      9.41780700     12.71068200       1
O           6.14747800      9.40299800     12.78679400       1
O           8.43155100      9.06886400     14.01295100       1
H           8.08808800      8.13171000     14.38650500       1
O           8.28214800      8.49175200     11.60856600       1
H           7.55877000      8.16036800     10.93745300       1
O           8.12120300     10.88796300     12.36108100       1
H           9.15083400     10.88278600     12.36193300       1
O           3.67243900      8.51085500     10.12042500       2
H           3.93197300      9.39889500     10.47556700       2
H           3.11131000      8.69084500      9.37243200       2
O           4.41556300     10.89724600     11.10308100       3
H           4.95702300     10.52220500     11.82902100       3
H           5.05604200     11.37714500     10.57377300       3
O           6.34072300      7.36789000      9.86927400       4
H           6.26271900      6.53465700     10.34283200       4
H           5.46630900      7.77544500      9.94487100       4
O           7.50021700      6.71841400     15.13437000       5
H           6.75514500      6.98626200     15.67244100       5
H           7.07432400      6.15854500     14.43277400       5   

