          40
 Energy =  -1713.24576180 a.u.  #Cluster:    1
C          10.00453300      8.20432200      8.96845100
H          10.16472600      7.19221300      9.37095300
H          10.98812800      8.73320700      9.00466800
H           9.73652100      8.15157700      7.89863100
C           8.87166300     10.35694400      9.16470400
H           8.48461100     10.27819900      8.12368200
H           9.93063400     10.74234500      9.06339200
C           9.36323900      9.00456400     11.19809500
H           8.56438400      9.41830400     11.82850900
H           9.63523700      8.00205100     11.57359000
H          10.26610100      9.64910400     11.34075700
C           7.65263800      8.24762500      9.62540400
H           7.71609900      7.22305500     10.02976800
H           6.85536500      8.78136700     10.16928700
H           7.34627900      8.17548600      8.56667500
C           8.04651100     11.35342400      9.98129800
H           8.52072300     11.53791200     10.97417800
H           7.03360400     10.96328600     10.18921000
C           7.93988800     12.67259200      9.22048400
H           7.23069300     13.35069400      9.72785700
H           7.53649100     12.52629600      8.20568600
N           8.96707700      8.96190300      9.75340800
S           9.53532500     13.54709400      9.08576800
O          10.10137200     13.49521100     10.46103600
O          10.34097800     12.65396400      8.17152300
O           9.21733000     14.85849400      8.55270400
P          12.85477300     11.41929600     10.20908300
O          12.02982800     10.20032700     10.32210500
O          12.91697300     12.02610000      8.75191000
H          11.91831400     12.30176500      8.46234800
O          12.51449300     12.57145500     11.22177500
H          11.53436700     12.96950400     10.96990300
O          14.37272000     11.05028300     10.53244200
H          14.91976200     11.92280800     10.45691300
O          10.52255300     10.24668500      6.74074100
H          11.45285000     10.20266200      6.53292900
H          10.41875600     11.14768800      7.12303200
O          11.95179100      7.42751800     11.08524600
H          12.79818700      7.13094700     11.41021100
H          12.09450300      8.36174500     10.86166100
          40
 Energy =  -1713.24529520 a.u.  #Cluster:    2
C          10.10710800      8.10337800      8.93137500
H           9.93850300      8.07295500      7.83980200
H          10.21563800      7.08286500      9.32961200
H          11.08900400      8.61407500      9.06932900
C           8.99121100     10.26889400      9.05697100
H           8.65963300     10.21362600      7.99369400
H          10.06513800     10.62381400      9.01975200
C           9.26066600      8.87345500     11.10523000
H           8.39474100      9.25540100     11.66313100
H           9.51584600      7.86634000     11.48039600
H          10.12951000      9.53073300     11.35521300
C           7.70353300      8.17325700      9.35765300
H           7.70544200      7.14614800      9.75951600
H           6.86296200      8.72071200      9.81606600
H           7.50975800      8.11209900      8.27154400
C           8.15192800     11.28063800      9.83929000
H           8.61726800     11.49297300     10.83126800
H           7.14010100     10.88934300     10.04977700
C           8.04229900     12.57810100      9.04262300
H           7.31877500     13.26113500      9.52259100
H           7.65482400     12.40133600      8.02666400
N           9.00974700      8.86341700      9.62801500
S           9.62720800     13.47163100      8.90827900
O          10.10835500     13.58132100     10.30980300
O          10.50358400     12.51226500      8.13492500
O           9.31385600     14.70970100      8.21837000
P          12.80439900     11.42157700     10.50623500
O          11.94837100     10.22885500     10.65048400
O          13.01246000     11.89901000      9.01432400
H          12.05236900     12.14806100      8.60632300
O          12.40707100     12.66469500     11.38167500
H          11.47141800     13.06372900     11.00157800
O          14.28027500     11.05990700     10.99488000
H          14.85122100     11.91397600     10.89642100
O          10.47001700     10.20584600      6.60399500
H          11.17953200     10.26601300      5.97436000
H          10.50085200     11.07184200      7.08057200
O          11.89759300      7.39537000     11.16626800
H          12.72939800      7.09294800     11.52235100
H          12.02840800      8.34857500     11.02965600
          40
 Energy =  -1713.24483650 a.u.  #Cluster:    3
C           9.99078900      7.99194500      9.22105500
H          10.19145400      7.17237200      9.93771400
H          10.96733100      8.50318900      9.04979000
H           9.67008300      7.56444100      8.26130200
C           8.91152300     10.15051100      8.81746700
H           8.79150300      9.79024900      7.77183100
H           9.92965400     10.63231800      8.84717400
C           9.39378600      9.40549600     11.13456600
H           8.72227800     10.18320800     11.54037200
H           9.46877900      8.55879200     11.83225400
H          10.39548300      9.89498700     11.10447300
C           7.64870200      8.26888200      9.84528600
H           7.72211100      7.34227300     10.44073300
H           6.89317800      8.91436400     10.32591600
H           7.27700500      8.00268300      8.84174700
C           7.80964500     11.15739600      9.17322100
H           7.63763200     11.19800100     10.27148700
H           6.84614900     10.84078600      8.72722300
C           8.16647600     12.55031300      8.66758300
H           7.30738600     13.23504700      8.78137100
H           8.38262300     12.53072900      7.58135800
N           8.97696900      8.96176700      9.76271800
S           9.60064700     13.27369000      9.52951900
O           9.83477800     12.37027400     10.70118600
O          10.70654900     13.06756600      8.52533100
O           9.25732900     14.64905900      9.83289500
P          13.09790000     11.20004700     10.20326500
O          12.53581500      9.91151200      9.75904600
O          13.22649400     12.32872500      9.11519000
H          12.23459700     12.65980600      8.84125200
O          12.38302100     11.79935300     11.48155100
H          11.36865800     12.03877700     11.23986200
O          14.59847700     10.97790000     10.69487400
H          14.97129100     11.90315800     10.96255400
O          10.54739800     11.11037000      6.57523200
H          11.45340000     10.90762200      6.36003500
H          10.62302300     11.88181900      7.18292000
O          11.77433600      7.69413000     11.45056300
H          12.45341100      7.55184300     12.10544000
H          12.11235300      8.43462000     10.91266200
          40
 Energy =  -1713.21816240 a.u.  #Cluster:    4
C          10.07357900      8.15419500      9.16866700
H           9.84502000      7.76474200      8.16905000
H          10.34829600      7.32127800      9.84818300
H          11.01140700      8.76884100      9.08466900
C           8.67020400     10.13652600      8.76651200
H           8.31799800      9.72392400      7.79633200
H           9.67486700     10.60382000      8.49587500
C           9.34531300      9.50887400     11.09574000
H           8.52974500     10.04885100     11.59703800
H           9.72504400      8.69759400     11.75070100
H          10.19112900     10.23910800     11.00455600
C           7.71709100      8.11896500      9.87950700
H           7.91583100      7.26512700     10.55320900
H           6.86992900      8.68295500     10.30229600
H           7.39901300      7.70801200      8.90713900
C           7.69142000     11.18998000      9.29876900
H           7.74099500     11.25784200     10.41218600
H           6.64994200     10.89109500      9.06047000
C           7.96528000     12.56742400      8.71144600
H           7.12543700     13.25340900      8.95113600
H           7.96293100     12.53111900      7.60164800
N           8.94789400      8.99020000      9.73580700
S           9.49929600     13.25611900      9.29180300
O           9.88548000     12.48810600     10.53683200
O          10.50492100     12.85772200      8.21517700
O           9.32167500     14.67636200      9.46870200
P          12.84488000     11.14807100     10.14594400
O          12.18013500      9.82506700     10.32918500
O          12.72647500     11.71676500      8.64100800
H          11.91674700     12.45548700      8.44714000
O          12.36588100     12.34255600     11.11331400
H          11.29498800     12.53553500     11.17459700
O          14.45575900     11.07369800     10.43063800
H          14.95490100     11.93219600     10.36312900
O          10.85614200     10.59930700      6.96247200
H          11.78200300     10.56623000      7.26110500
H          10.66897500     11.55781800      6.87530000
O          11.47872200      7.52276100     11.67404800
H          12.08746500      7.08059100     12.25058200
H          11.96720800      8.30174700     11.30810600
