          40
 Energy =    -1713.24566630 a.u.  Frame:     1 Step:     1 Geom:     1
C          10.34461500      8.15994200      9.08383100
H          10.31016100      8.07591400      7.98282800
H          10.45970800      7.16489900      9.54013500
H          11.27502100      8.73434100      9.31261600
C           9.08497000     10.24411100      8.94508800
H           8.87225100     10.10046500      7.85995200
H          10.13201700     10.67024700      8.99187700
C           9.22586900      8.99914100     11.10146900
H           8.29188300      9.37619100     11.53992400
H           9.47752600      8.03060200     11.56918900
H          10.03943700      9.70915700     11.39217300
C           7.90918000      8.08635500      9.25705800
H           7.93397800      7.08834200      9.72620400
H           6.99208100      8.60027700      9.59027500
H           7.83554100      7.94504000      8.16376900
C           8.10442500     11.24040900      9.56613800
H           8.41775700     11.50776000     10.60316900
H           7.09061800     10.80860300      9.65046100
C           8.05255300     12.50458500      8.71180700
H           7.23810300     13.16624600      9.05697600
H           7.82276700     12.27542800      7.65884200
N           9.13303300      8.88174600      9.61055600
S           9.60095100     13.46711800      8.76798800
O           9.91729800     13.57304100     10.21690800
O          10.59976700     12.55628200      8.09039800
O           9.31553600     14.70287100      8.06261200
P          12.71103800     11.58302400     10.66791200
O          11.91803600     10.33856000     10.71317700
O          13.03923600     12.09481100      9.21042800
H          12.10910100     12.28438300      8.70697300
O          12.14696300     12.78414500     11.51007200
H          11.23320500     13.13294500     11.03753800
O          14.14687600     11.30318600     11.30574500
H          14.67202600     12.19132700     11.27347400
O          10.81752500     10.18708700      6.66401700
H          11.62885100     10.23091300      6.17020800
H          10.75645300     11.07308900      7.09782100
O          11.87343500      7.59053900     11.56939800
H          12.66331200      7.36078300     12.05232900
H          11.99691500      8.52611400     11.33868900
          40
 Energy =    -1713.24529520 a.u.  Frame:     2 Step:     2 Geom:     2
C          10.10710800      8.10337800      8.93137500
H           9.93850300      8.07295500      7.83980200
H          10.21563800      7.08286500      9.32961200
H          11.08900400      8.61407500      9.06932900
C           8.99121100     10.26889400      9.05697100
H           8.65963300     10.21362600      7.99369400
H          10.06513800     10.62381400      9.01975200
C           9.26066600      8.87345500     11.10523000
H           8.39474100      9.25540100     11.66313100
H           9.51584600      7.86634000     11.48039600
H          10.12951000      9.53073300     11.35521300
C           7.70353300      8.17325700      9.35765300
H           7.70544200      7.14614800      9.75951600
H           6.86296200      8.72071200      9.81606600
H           7.50975800      8.11209900      8.27154400
C           8.15192800     11.28063800      9.83929000
H           8.61726800     11.49297300     10.83126800
H           7.14010100     10.88934300     10.04977700
C           8.04229900     12.57810100      9.04262300
H           7.31877500     13.26113500      9.52259100
H           7.65482400     12.40133600      8.02666400
N           9.00974700      8.86341700      9.62801500
S           9.62720800     13.47163100      8.90827900
O          10.10835500     13.58132100     10.30980300
O          10.50358400     12.51226500      8.13492500
O           9.31385600     14.70970100      8.21837000
P          12.80439900     11.42157700     10.50623500
O          11.94837100     10.22885500     10.65048400
O          13.01246000     11.89901000      9.01432400
H          12.05236900     12.14806100      8.60632300
O          12.40707100     12.66469500     11.38167500
H          11.47141800     13.06372900     11.00157800
O          14.28027500     11.05990700     10.99488000
H          14.85122100     11.91397600     10.89642100
O          10.47001700     10.20584600      6.60399500
H          11.17953200     10.26601300      5.97436000
H          10.50085200     11.07184200      7.08057200
O          11.89759300      7.39537000     11.16626800
H          12.72939800      7.09294800     11.52235100
H          12.02840800      8.34857500     11.02965600
          40
 Energy =    -1713.24576180 a.u.  Frame:     3 Step:     3 Geom:     3
C          10.00453300      8.20432200      8.96845100
H          10.16472600      7.19221300      9.37095300
H          10.98812800      8.73320700      9.00466800
H           9.73652100      8.15157700      7.89863100
C           8.87166300     10.35694400      9.16470400
H           8.48461100     10.27819900      8.12368200
H           9.93063400     10.74234500      9.06339200
C           9.36323900      9.00456400     11.19809500
H           8.56438400      9.41830400     11.82850900
H           9.63523700      8.00205100     11.57359000
H          10.26610100      9.64910400     11.34075700
C           7.65263800      8.24762500      9.62540400
H           7.71609900      7.22305500     10.02976800
H           6.85536500      8.78136700     10.16928700
H           7.34627900      8.17548600      8.56667500
C           8.04651100     11.35342400      9.98129800
H           8.52072300     11.53791200     10.97417800
H           7.03360400     10.96328600     10.18921000
C           7.93988800     12.67259200      9.22048400
H           7.23069300     13.35069400      9.72785700
H           7.53649100     12.52629600      8.20568600
N           8.96707700      8.96190300      9.75340800
S           9.53532500     13.54709400      9.08576800
O          10.10137200     13.49521100     10.46103600
O          10.34097800     12.65396400      8.17152300
O           9.21733000     14.85849400      8.55270400
P          12.85477300     11.41929600     10.20908300
O          12.02982800     10.20032700     10.32210500
O          12.91697300     12.02610000      8.75191000
H          11.91831400     12.30176500      8.46234800
O          12.51449300     12.57145500     11.22177500
H          11.53436700     12.96950400     10.96990300
O          14.37272000     11.05028300     10.53244200
H          14.91976200     11.92280800     10.45691300
O          10.52255300     10.24668500      6.74074100
H          11.45285000     10.20266200      6.53292900
H          10.41875600     11.14768800      7.12303200
O          11.95179100      7.42751800     11.08524600
H          12.79818700      7.13094700     11.41021100
H          12.09450300      8.36174500     10.86166100
          40
 Energy =    -1713.21816240 a.u.  Frame:     4 Step:     4 Geom:     4
C          10.07357900      8.15419500      9.16866700
H           9.84502000      7.76474200      8.16905000
H          10.34829600      7.32127800      9.84818300
H          11.01140700      8.76884100      9.08466900
C           8.67020400     10.13652600      8.76651200
H           8.31799800      9.72392400      7.79633200
H           9.67486700     10.60382000      8.49587500
C           9.34531300      9.50887400     11.09574000
H           8.52974500     10.04885100     11.59703800
H           9.72504400      8.69759400     11.75070100
H          10.19112900     10.23910800     11.00455600
C           7.71709100      8.11896500      9.87950700
H           7.91583100      7.26512700     10.55320900
H           6.86992900      8.68295500     10.30229600
H           7.39901300      7.70801200      8.90713900
C           7.69142000     11.18998000      9.29876900
H           7.74099500     11.25784200     10.41218600
H           6.64994200     10.89109500      9.06047000
C           7.96528000     12.56742400      8.71144600
H           7.12543700     13.25340900      8.95113600
H           7.96293100     12.53111900      7.60164800
N           8.94789400      8.99020000      9.73580700
S           9.49929600     13.25611900      9.29180300
O           9.88548000     12.48810600     10.53683200
O          10.50492100     12.85772200      8.21517700
O           9.32167500     14.67636200      9.46870200
P          12.84488000     11.14807100     10.14594400
O          12.18013500      9.82506700     10.32918500
O          12.72647500     11.71676500      8.64100800
H          11.91674700     12.45548700      8.44714000
O          12.36588100     12.34255600     11.11331400
H          11.29498800     12.53553500     11.17459700
O          14.45575900     11.07369800     10.43063800
H          14.95490100     11.93219600     10.36312900
O          10.85614200     10.59930700      6.96247200
H          11.78200300     10.56623000      7.26110500
H          10.66897500     11.55781800      6.87530000
O          11.47872200      7.52276100     11.67404800
H          12.08746500      7.08059100     12.25058200
H          11.96720800      8.30174700     11.30810600
          40
 Energy =    -1713.24571880 a.u.  Frame:     5 Step:     5 Geom:     5
C          10.18173100      8.12981200      9.11956100
H          10.05292200      8.03463000      8.02668300
H          10.30301400      7.13646100      9.57806600
H          11.14544600      8.67663500      9.26187200
C           8.98976100     10.25746400      9.06812700
H           8.70659300     10.11729600      7.99894300
H          10.04921900     10.65383100      9.04830000
C           9.25697900      9.01661600     11.21351200
H           8.37643900      9.43294600     11.72151300
H           9.50649100      8.04107100     11.66750200
H          10.11858800      9.69493600     11.43305100
C           7.76673500      8.14321200      9.48518000
H           7.79700400      7.14381300      9.95117400
H           6.89809000      8.68628700      9.89353700
H           7.59778800      8.00708600      8.40192600
C           8.07807500     11.28229500      9.74517100
H           8.45881900     11.53750400     10.76243000
H           7.05777900     10.88214400      9.88747900
C           8.01643700     12.54951100      8.89594900
H           7.24708200     13.23714600      9.29026600
H           7.71538600     12.33045400      7.85887800
N           9.04164600      8.89621100      9.73548200
S           9.59704700     13.45913600      8.85757300
O          10.01600600     13.53150500     10.28263300
O          10.51500400     12.52538600      8.10175700
O           9.30693400     14.71477300      8.19048900
P          12.78760300     11.47351400     10.50182300
O          11.96641700     10.25053000     10.59909000
O          13.01751300     11.98943100      9.02706400
H          12.05714300     12.21210800      8.59878800
O          12.32135100     12.68182000     11.39227800
H          11.38126800     13.05489600     10.99602900
O          14.25961900     11.15037300     11.02638400
H          14.80579300     12.02357800     10.95575600
O          10.61168000     10.12427200      6.70599000
H          11.44471700     10.11489200      6.24664000
H          10.58082600     11.02183000      7.11738900
O          11.87791200      7.51421000     11.48593200
H          12.69107600      7.25840500     11.91403500
H          12.02008800      8.44199500     11.23576600
          40
 Energy =    -1713.24483650 a.u.  Frame:     6 Step:     6 Geom:     6
C           9.99078900      7.99194500      9.22105500
H          10.19145400      7.17237200      9.93771400
H          10.96733100      8.50318900      9.04979000
H           9.67008300      7.56444100      8.26130200
C           8.91152300     10.15051100      8.81746700
H           8.79150300      9.79024900      7.77183100
H           9.92965400     10.63231800      8.84717400
C           9.39378600      9.40549600     11.13456600
H           8.72227800     10.18320800     11.54037200
H           9.46877900      8.55879200     11.83225400
H          10.39548300      9.89498700     11.10447300
C           7.64870200      8.26888200      9.84528600
H           7.72211100      7.34227300     10.44073300
H           6.89317800      8.91436400     10.32591600
H           7.27700500      8.00268300      8.84174700
C           7.80964500     11.15739600      9.17322100
H           7.63763200     11.19800100     10.27148700
H           6.84614900     10.84078600      8.72722300
C           8.16647600     12.55031300      8.66758300
H           7.30738600     13.23504700      8.78137100
H           8.38262300     12.53072900      7.58135800
N           8.97696900      8.96176700      9.76271800
S           9.60064700     13.27369000      9.52951900
O           9.83477800     12.37027400     10.70118600
O          10.70654900     13.06756600      8.52533100
O           9.25732900     14.64905900      9.83289500
P          13.09790000     11.20004700     10.20326500
O          12.53581500      9.91151200      9.75904600
O          13.22649400     12.32872500      9.11519000
H          12.23459700     12.65980600      8.84125200
O          12.38302100     11.79935300     11.48155100
H          11.36865800     12.03877700     11.23986200
O          14.59847700     10.97790000     10.69487400
H          14.97129100     11.90315800     10.96255400
O          10.54739800     11.11037000      6.57523200
H          11.45340000     10.90762200      6.36003500
H          10.62302300     11.88181900      7.18292000
O          11.77433600      7.69413000     11.45056300
H          12.45341100      7.55184300     12.10544000
H          12.11235300      8.43462000     10.91266200
