%nproc=24                                              
%mem=50GB                                              
#p B3LYP/6-311+G(2d,p) opt freq scrf(smd,solvent=water)

Title Card Required

0 1  
C           4.78740700      8.88272300      8.69110900         
C           5.30344900      9.45764600      7.53486800         
C           6.16405400     10.54757400      9.30936700         
N           5.33585800      9.56948100      9.77563000         
H           4.09181000      8.07274800      8.80519900         
H           5.12141200      9.22021700      6.50384800         
H           6.74620600     11.26137700      9.90894900         
C           4.95380300      9.41184600     11.16716300         
H           4.25326300     10.23693300     11.46014900         
H           4.46102600      8.44494800     11.34678700         
H           5.83759600      9.49957800     11.83959700         
N           6.16684100     10.47766200      7.93452400         
C           6.75501900     11.50940200      7.07998300         
H           7.37866300     11.02256200      6.29739600         
H           7.43866000     12.14572400      7.70880600         
C           5.69229800     12.42279300      6.43145100         
H           6.21523000     13.34892600      6.10037100         
H           5.28865600     11.94875600      5.51810000         
C           4.53724000     12.81831800      7.35224400         
H           3.71794300     12.07824800      7.30706300         
H           4.09640700     13.78119700      7.03216200         
C           4.99796900     12.97630300      8.80666300         
O           5.99348400     13.67793500      9.03421700         
O           4.38255600     12.28707600      9.65286900         
P           6.32953400     12.86152600     12.47149200         
O           7.10412300     11.63431900     12.25567300         
O           4.76356600     12.69224300     12.26888300         
H           4.56121200     12.59894700     11.22060600         
O           6.46135900     13.35025300     13.98321500         
H           5.90512500     14.21653800     14.07041100         
O           6.76535700     14.13394600     11.63288400         
H           6.47287700     13.99227700     10.61833200         




