%nprocshared=24
%mem=50GB
#p M062X/6-311+G(2d,p) nosymm em=GD3 counterpoise=2 scrf=(smd,solvent=water)

Title Card Required

0 1
 C                  4.99649900    0.49510400   -0.10622400             1
 C                  4.42845800   -0.65255100   -0.55515300             1
 C                  2.83678100    0.85500000   -0.34482400             1
 N                  3.98449700    1.42546900    0.01895900             1
 H                  6.01978400    0.73311100    0.12629900             1
 H                  4.86199100   -1.60985700   -0.78656900             1
 H                  1.87348700    1.33611000   -0.35180100             1
 C                  4.14528400    2.80714700    0.47225500             1
 H                  4.53900900    2.81056000    1.48688800             1
 H                  4.83320700    3.32728800   -0.19155300             1
 H                  3.17425100    3.29456100    0.45227000             1
 N                  3.07852900   -0.40581200   -0.70654500             1
 C                  2.06240100   -1.39891700   -1.09464400             1
 H                  2.48519700   -1.97776300   -1.91424300             1
 H                  1.20736400   -0.84404000   -1.47913900             1
 C                  1.66580500   -2.32110800    0.05725700             1
 H                  1.03212900   -3.10230900   -0.36631900             1
 H                  2.56108300   -2.81334600    0.44454800             1
 C                  0.93657000   -1.62666000    1.20905000             1
 H                  1.54589200   -0.83752700    1.65193600             1
 H                  0.75311800   -2.35964400    2.00181700             1
 C                 -0.41944200   -1.04543400    0.84565600             1
 O                 -1.15073400   -1.69782700    0.04107400             1
 O                 -0.76133600    0.04712800    1.38818400             1
 P                 -3.85657900    0.57407000   -0.31541700             2
 O                 -3.90247700    1.41478600   -1.54231800             2
 O                 -2.95605200    1.15100700    0.83940000             2
 H                 -2.06026200    0.65091100    1.03643900             2
 O                 -5.34566200    0.52602500    0.28118500             2
 H                 -5.41205300    0.01545100    1.10278300             2
 O                 -3.44164700   -0.92176400   -0.54447300             2
 H                 -2.45756200   -1.20248100   -0.27364500             2

