%nproc=24
%mem=50GB
#p M062X/6-311+G(2d,p) nosymm em=GD3 counterpoise=4

Title Card Required

0 1
C           3.77727700      7.15245000     11.99004300       1
H           3.33144700      6.33686200     11.39098100       1
H           3.20071100      7.26102200     12.91863600       1
H           4.80735700      6.82807100     12.27117200       1
C           4.67969600      8.22571300      9.97728000       1
H           4.32272200      7.31962300      9.44111600       1
H           5.71273000      7.97276900     10.33452700       1
C           4.39538300      9.51459100     12.08174100       1
H           5.37430400      9.19627900     12.50812600       1
H           4.64346900     10.42622700     11.50051600       1
H           3.72554900      9.77385800     12.90874200       1
C           2.41812200      8.80279700     10.81322300       1
H           1.74746100      8.84016900     11.68490200       1
H           2.38696700      9.78275900     10.31121200       1
H           2.00535100      8.04901300     10.10618100       1
C           4.69764900      9.43041200      9.02505200       1
H           4.59261500     10.38802600      9.57866600       1
H           3.82734500      9.37898900      8.33907900       1
C           5.98263400      9.45256200      8.20636800       1
H           5.91438700     10.20888000      7.40380100       1
H           6.12800300      8.48786500      7.68258900       1
N           3.81742300      8.43827700     11.21100100       1
S           7.46428100      9.81053800      9.20905200       1
O           6.92524800     10.10195700     10.57730800       1
O           8.16662800      8.47909500      9.22145800       1
O           8.16224700     10.89884300      8.55169600       1
O           2.23219300      6.06880000      9.23754000       2
H           1.56065200      5.47822400      8.90976500       2
H           2.99594900      5.93646700      8.64472100       2
O           4.49285400      5.74127200      7.60717000       3
H           5.33395100      5.90865800      8.09542400       3
H           4.69451700      5.01776300      7.02330100       3
O           6.79480300      6.12839600      8.99125900       4
H           6.85709400      5.91278800      9.92633600       4
H           7.38696000      6.91812500      8.90838600       4

