          43
 Energy =  -1789.69316140 a.u.  #Cluster:    1
C           3.77727700      7.15245000     11.99004300
H           3.33144700      6.33686200     11.39098100
H           3.20071100      7.26102200     12.91863600
H           4.80735700      6.82807100     12.27117200
C           4.67969600      8.22571300      9.97728000
H           4.32272200      7.31962300      9.44111600
H           5.71273000      7.97276900     10.33452700
C           4.39538300      9.51459100     12.08174100
H           5.37430400      9.19627900     12.50812600
H           4.64346900     10.42622700     11.50051600
H           3.72554900      9.77385800     12.90874200
C           2.41812200      8.80279700     10.81322300
H           1.74746100      8.84016900     11.68490200
H           2.38696700      9.78275900     10.31121200
H           2.00535100      8.04901300     10.10618100
C           4.69764900      9.43041200      9.02505200
H           4.59261500     10.38802600      9.57866600
H           3.82734500      9.37898900      8.33907900
C           5.98263400      9.45256200      8.20636800
H           5.91438700     10.20888000      7.40380100
H           6.12800300      8.48786500      7.68258900
N           3.81742300      8.43827700     11.21100100
S           7.46428100      9.81053800      9.20905200
O           6.92524800     10.10195700     10.57730800
O           8.16662800      8.47909500      9.22145800
O           8.16224700     10.89884300      8.55169600
P           8.12227300      7.38540800     12.46190200
O           6.96806700      6.57842600     12.03411000
O           7.76655200      8.87866000     12.85804500
H           7.49681800      9.42184000     11.97693800
O           8.74469900      6.79595800     13.80311900
H           9.54514000      7.40053000     14.05461700
O           9.34262900      7.44133300     11.46150000
H           8.97785100      7.80971800     10.52141200
O           2.23219300      6.06880000      9.23754000
H           1.56065200      5.47822400      8.90976500
H           2.99594900      5.93646700      8.64472100
O           4.49285400      5.74127200      7.60717000
H           5.33395100      5.90865800      8.09542400
H           4.69451700      5.01776300      7.02330100
O           6.79480300      6.12839600      8.99125900
H           6.85709400      5.91278800      9.92633600
H           7.38696000      6.91812500      8.90838600
          43
 Energy =  -1789.69284590 a.u.  #Cluster:    2
C           3.60897400      7.24759700     12.12779600
H           3.48241500      6.42804600     11.38701500
H           2.78887200      7.18816600     12.85382300
H           4.56556500      7.05329700     12.66685700
C           4.73472800      8.54026700     10.37420800
H           4.34417000      7.98507900      9.48920200
H           5.58030600      7.89958900     10.76060300
C           3.91160200      9.64812000     12.46629700
H           4.96840400      9.60168400     12.83100700
H           3.75467000     10.65657300     12.05770200
H           3.26819800      9.52082800     13.34955800
C           2.31944500      8.84611900     10.79802800
H           1.51607200      8.91701400     11.54640800
H           2.33820500      9.77845600     10.21141800
H           2.05326200      8.02280400     10.10037600
C           5.26475500      9.91600700      9.95984500
H           5.87458200     10.36409800     10.77911800
H           4.43276300     10.62189600      9.77480400
C           6.11093800      9.79797900      8.69781200
H           6.34371600     10.80181900      8.29791800
H           5.55990500      9.28412200      7.88734000
N           3.65194300      8.58512300     11.44075300
S           7.68401600      8.92653400      8.95552500
O           8.46861800      9.74660400      9.89123900
O           7.26645100      7.61830400      9.57897700
O           8.19369600      8.75115900      7.58453900
P           7.89160700      7.99572900     12.96870500
O           6.44567200      8.23267400     13.07876900
O           8.78287600      9.25832200     12.63091600
H           8.71023900      9.47610200     11.59635900
O           8.46340700      7.52935200     14.38200800
H           9.48239100      7.40212200     14.27173200
O           8.31266200      6.82304300     11.99347000
H           7.91090300      7.02992700     11.02846100
O           3.00708900      5.95390800      9.34440400
H           3.91288900      5.97534300      8.94516800
H           2.61880900      5.15801100      8.99743000
O           5.49111100      6.00968500      8.29177900
H           5.69543000      6.37616000      7.41789400
H           6.18099000      6.42248400      8.86315400
O           6.43421300      7.37373100      5.99660900
H           6.92567000      6.84930800      5.37348000
H           7.12777700      7.89682800      6.47151100
          43
 Energy =  -1789.69263460 a.u.  #Cluster:    3
C           3.43838400      7.15513400     11.73019700
H           3.51608100      6.28410900     11.04904200
H           2.50432500      7.06781800     12.29961600
H           4.29048400      7.08490800     12.44678700
C           4.75061500      8.42296000     10.08987100
H           4.54047500      7.81705500      9.17749400
H           5.54800800      7.84355900     10.63921800
C           3.50929400      9.58666400     11.93203100
H           4.48457700      9.64063400     12.47622300
H           3.36456700     10.55312000     11.42799000
H           2.72614900      9.46801700     12.69575000
C           2.28515900      8.55285300     10.08637400
H           1.36142100      8.60105600     10.68048300
H           2.33741400      9.44237700      9.43932200
H           2.20700200      7.66389300      9.41632100
C           5.27972400      9.80734400      9.70436000
H           5.74160400     10.30912100     10.58674000
H           4.45650800     10.46745800      9.37058800
C           6.30801400      9.68750500      8.58527700
H           6.57560600     10.69004400      8.20411200
H           5.89415000      9.14628700      7.71366400
N           3.50258900      8.44587600     10.95869500
S           7.84468700      8.85928700      9.08868700
O           8.48479600      9.73440000     10.08293600
O           7.36734000      7.56901200      9.70640900
O           8.53923500      8.63765300      7.80853600
P           7.47663100      8.16839100     13.13371100
O           6.03099300      8.40005500     13.01015100
O           8.41375200      9.41131000     12.85659400
H           8.48512900      9.57215100     11.81013900
O           7.82825700      7.78928700     14.64189200
H           8.85210700      7.66408400     14.69398100
O           8.03333100      6.93919400     12.30585200
H           7.79118800      7.08615500     11.27997300
O           3.15901200      5.88769800      8.70528000
H           2.81925200      5.14387200      8.21997100
H           4.13287400      5.86951000      8.52993000
O           5.82599200      5.85181200      8.24309800
H           6.18178300      6.15944200      7.39390500
H           6.40955800      6.30832800      8.89339800
O           7.12657200      7.07594500      6.05553300
H           7.69949700      7.66951500      6.60296900
H           7.74587300      6.53512100      5.57692800
          43
 Energy =  -1789.69205370 a.u.  #Cluster:    4
C           3.40848300      7.33488800     11.79242900
H           3.43579600      6.44889700     11.12083500
H           2.46514100      7.31159100     12.35238300
H           4.24795600      7.22443700     12.51465400
C           4.82558200      8.50568700     10.16835200
H           4.61602800      7.87706800      9.27126000
H           5.58387000      7.91538700     10.75955500
C           3.59249700      9.76323500     11.95344800
H           4.54679400      9.77128200     12.53380700
H           3.52634300     10.72689100     11.42739700
H           2.77294300      9.70707600     12.68539100
C           2.36952800      8.75545400     10.09253000
H           1.43329200      8.85784300     10.65972900
H           2.48216500      9.62989200      9.43283100
H           2.26683000      7.85811700      9.43731400
C           5.41908700      9.85571700      9.75527500
H           5.91237100     10.34573100     10.62761800
H           4.62719300     10.55190800      9.41910300
C           6.42899700      9.67160900      8.62840300
H           6.75565300     10.65617600      8.24588200
H           5.97392600      9.15870200      7.76055600
N           3.55604000      8.60605500     11.00037400
S           7.91754900      8.74921400      9.11371800
O           8.65626000      9.60895700     10.05035000
O           7.37146400      7.51841000      9.79240300
O           8.54773800      8.43168900      7.81981600
P           7.59450600      8.27283300     13.18650600
O           6.17703800      8.63389800     13.06150100
O           8.64670400      9.40125600     12.84010800
H           8.69686800      9.52141500     11.78743900
O           7.92939900      7.93355400     14.70813700
H           8.93730100      7.71435200     14.75715300
O           8.02179700      6.95614500     12.41639700
H           7.78462600      7.07608700     11.38744900
O           3.15713200      5.94916900      9.03288800
H           2.77154600      5.17022200      8.64693800
H           4.12163200      5.88214400      8.80404900
O           5.77252100      5.76769900      8.44658200
H           6.10067900      6.03962900      7.57384800
H           6.38057000      6.24728000      9.05840700
O           7.01070900      6.88156500      6.17369200
H           7.62619400      7.46591400      6.68519100
H           7.59125400      6.30493500      5.68831700
          43
 Energy =  -1789.69097340 a.u.  #Cluster:    5
C           3.54807600      7.27044600     11.57669000
H           3.25453700      6.42868200     10.92462900
H           2.80833100      7.36097600     12.38348200
H           4.51880700      6.98406200     12.04643900
C           4.61323200      8.33745000      9.62060400
H           4.19992200      7.51890100      8.98465300
H           5.58497100      7.94677200     10.01961800
C           4.22474400      9.60019900     11.73485500
H           5.19065400      9.26564700     12.18473100
H           4.48901000     10.53432000     11.20317000
H           3.52393100      9.82288600     12.54723000
C           2.32507200      8.95448600     10.30886600
H           1.60463100      9.05269900     11.13522400
H           2.36278000      9.91472200      9.77045200
H           1.93044000      8.18802200      9.60691400
C           4.81582600      9.59667800      8.76285800
H           4.70738200     10.52419300      9.36545600
H           4.02375600      9.65026400      7.98776800
C           6.18037200      9.58928600      8.08570100
H           6.24106200     10.39909500      7.33544100
H           6.32798800      8.65535000      7.50774700
N           3.68373400      8.55391600     10.80527300
S           7.56059700      9.79051500      9.25682400
O           6.90226400     10.00976600     10.58231900
O           8.19661600      8.42131300      9.23850000
O           8.38127600     10.87660000      8.75867000
P           7.74944700      7.09530600     12.40119200
O           6.50820200      6.43629000     11.96728200
O           7.55875500      8.60891800     12.83212900
H           7.35115900      9.20210200     11.97206200
O           8.28497600      6.40579100     13.73284800
H           9.15298600      6.89984800     14.00053400
O           8.98051300      7.01809600     11.41896300
H           8.73247600      7.55427700     10.52309600
O           2.59173300      5.98289700      8.65990300
H           2.28503400      5.32788300      8.03955400
H           3.48046900      5.67825400      8.93015100
O           5.18082900      5.34436700      9.52189400
H           5.88798600      5.60146300      8.89089700
H           5.59021100      5.49272100     10.38027700
O           7.21700500      6.27487400      7.95619300
H           7.94101600      5.65721500      7.91166400
H           7.60719600      7.06246700      8.42726100
          43
 Energy =  -1789.68853430 a.u.  #Cluster:    6
C           4.20938100      6.45079200     11.71989100
H           4.33064000      5.74953500     10.87176600
H           3.43418300      6.06449700     12.39381300
H           5.17879200      6.44858000     12.27303100
C           4.89238900      8.21115500     10.15930200
H           4.70615900      7.58679600      9.25645900
H           5.90783000      7.90689000     10.53387200
C           3.92380900      8.79098200     12.37797200
H           4.98092200      8.96089100     12.70607100
H           3.50642900      9.77121600     12.10342300
H           3.37754700      8.40195600     13.24943800
C           2.49399500      7.81108800     10.64495700
H           1.72661800      7.69784900     11.42304200
H           2.28518200      8.73395100     10.07017300
H           2.38235300      6.97199200      9.92701400
C           4.89143400      9.69450200      9.77714700
H           5.25590900     10.32244900     10.62120200
H           3.86369000     10.03580000      9.54025100
C           5.77755600      9.91283200      8.55318200
H           5.66493700     10.94765900      8.18252100
H           5.46103000      9.26675500      7.71634800
N           3.87760500      7.83323600     11.22521800
S           7.54028900      9.62890000      8.89067700
O           7.81643800     10.37609200     10.14307700
O           7.59677800      8.14069500      9.17270100
O           8.24316400     10.05053900      7.69288200
P           8.17949500      7.94308600     12.63876300
O           6.73591500      7.78229000     12.86778300
O           8.71908500      9.41799500     12.51811200
H           8.36493400      9.84786300     11.59497900
O           8.98304000      7.34899900     13.88150500
H           9.98764700      7.49466400     13.69018100
O           8.74745300      7.10612100     11.41671200
H           8.36088400      7.50790100     10.51004400
O           2.81086900      8.08539400      7.73179500
H           2.80595800      8.21499500      6.78755300
H           3.12045300      7.17879400      7.86964400
O           3.78416100      5.48138200      8.41788900
H           4.73551900      5.55039800      8.65755000
H           3.73337100      4.72940000      7.83383500
O           6.40800700      5.76282300      9.16750300
H           6.97309100      5.31886900      9.79224200
H           6.86506500      6.64140500      9.01850400
          43
 Energy =  -1789.68671500 a.u.  #Cluster:    7
C           3.94584300      7.00996200     12.16071800
H           3.83263600      6.14953600     11.47327000
H           3.20791800      6.91366100     12.96756300
H           4.96273500      6.93236400     12.61467700
C           4.77044900      8.31003500     10.25549100
H           4.40636800      7.59300000      9.48414700
H           5.74670600      7.87558900     10.61616000
C           4.04903200      9.44808300     12.36011500
H           5.14394400      9.54630200     12.57832900
H           3.71660800     10.40710800     11.93870700
H           3.55230500      9.29156700     13.32869500
C           2.38409000      8.40877500     10.90680100
H           1.65743400      8.45772600     11.73099200
H           2.25391700      9.29580100     10.26717300
H           2.12582100      7.52039500     10.28716000
C           5.00410100      9.69300400      9.63950500
H           5.51532300     10.36842200     10.36491400
H           4.04365300     10.18000200      9.38610500
C           5.85138200      9.56319700      8.37763600
H           5.83787500     10.50697700      7.80504800
H           5.43538700      8.79910800      7.69343100
N           3.79229700      8.30953900     11.41826900
S           7.58083800      9.14414600      8.73583300
O           8.02346700     10.11877200      9.75515800
O           7.46752100      7.75598900      9.34765200
O           8.25725400      9.14294200      7.44821000
P           8.10059300      8.24581700     12.75667900
O           6.64496400      8.24364900     12.96558700
O           8.74697100      9.63325400     12.36676800
H           8.48946400      9.86914200     11.35796700
O           8.83325200      7.88021800     14.12576400
H           9.84923700      7.90937900     13.94351300
O           8.64122500      7.15009700     11.75123500
H           8.19499100      7.31508300     10.79733400
O           2.74882100      5.72292600      9.35658400
H           2.49229900      4.82444700      9.17677500
H           3.33169500      5.97611000      8.61219000
O           4.44462600      6.47387400      7.31337900
H           5.36988000      6.16496700      7.53784000
H           4.30588100      6.20306400      6.41485100
O           6.89433800      5.65494800      7.88520100
H           7.53832700      5.78200100      7.19126000
H           7.14854100      6.36903500      8.55533800
          43
 Energy =  -1789.68408950 a.u.  #Cluster:    8
C           3.83242100      6.89708700     11.76403600
H           3.30167700      6.21521900     11.07476300
H           3.33844400      6.86437100     12.74506200
H           4.86193700      6.49025600     11.89413000
C           4.72378300      8.27354400      9.95200700
H           4.34405200      7.47517500      9.27552500
H           5.75482300      7.94536700     10.25656900
C           4.46254400      9.23585600     12.23255100
H           5.46991800      9.60572100     11.91047900
H           3.83188200     10.11489100     12.40525900
H           4.64630400      8.73270600     13.19978600
C           2.46983500      8.71419900     10.88976600
H           1.81725200      8.63698800     11.77279300
H           2.43439000      9.74999500     10.51681200
H           2.03912700      8.06265200     10.09747000
C           4.76696900      9.61877000      9.21718100
H           4.83918900     10.46740500      9.93266600
H           3.82536200      9.77436200      8.65303400
C           5.94210900      9.65432900      8.24607300
H           5.84287000     10.51193400      7.55623500
H           5.93993100      8.75877900      7.59572400
N           3.87482700      8.29711900     11.21263500
S           7.56077600      9.77417900      9.07351900
O           7.25874300     10.26767600     10.44741000
O           7.99091000      8.32582700      9.15054900
O           8.38511800     10.62642500      8.23835800
P           8.06416500      7.65824200     12.60014700
O           6.63106800      7.33943600     12.61989000
O           8.41191800      9.19915300     12.68981100
H           7.97186700      9.69533500     11.85084700
O           8.78215600      7.03731000     13.88061700
H           9.78345200      7.28383100     13.81600300
O           8.89450000      7.05036800     11.39702800
H           8.60881800      7.54587200     10.49783900
O           2.15974800      6.28048000      8.93365700
H           1.45253500      5.78078000      8.53715100
H           2.89331400      6.23122400      8.29398000
O           4.33359800      6.16453700      7.17538200
H           5.14846400      6.15418000      7.72170000
H           4.51750400      5.58047100      6.44744300
O           6.56008000      6.14534500      8.76536500
H           6.96285000      5.51602100      9.35037900
H           7.14877200      6.95659400      8.82239000
          43
 Energy =  -1789.68377490 a.u.  #Cluster:    9
C           3.75367600      7.09273200     11.73967800
H           3.24291000      6.36714700     11.07757600
H           3.21076800      7.14242800     12.69352400
H           4.76663800      6.68097500     11.95249000
C           4.77256900      8.31758800      9.88548500
H           4.41420000      7.48371000      9.24102600
H           5.77461900      7.98972300     10.27512900
C           4.38618300      9.45439600     12.06616800
H           5.42719300      9.76824600     11.79639500
H           3.77397800     10.36197400     12.11025100
H           4.47622900      9.03376300     13.08444600
C           2.47288400      8.84999300     10.64587400
H           1.76803500      8.85118400     11.49154200
H           2.47593400      9.85236800     10.18976600
H           2.07961900      8.13944200      9.88597800
C           4.89507100      9.60846400      9.06660400
H           4.93909500     10.50265400      9.72710500
H           3.99632300      9.74290200      8.43190400
C           6.13250700      9.55849400      8.17708300
H           6.09796200     10.37015800      7.42780300
H           6.15708300      8.62216100      7.58900600
N           3.84949100      8.44521300     11.08635500
S           7.69631200      9.70684300      9.10135300
O           7.31652800     10.30594000     10.41265200
O           8.08549900      8.26121100      9.31151200
O           8.59264800     10.48018200      8.26355300
P           7.91953000      7.85465000     12.80198300
O           6.47967600      7.57096600     12.75695100
O           8.30574500      9.38867700     12.79462300
H           7.92715400      9.82955200     11.89636200
O           8.54338700      7.31692600     14.16639300
H           9.55304600      7.53558500     14.14501000
O           8.80000500      7.13418000     11.70040300
H           8.59355500      7.57417400     10.75236100
O           2.26618800      6.15087200      9.10576600
H           1.57359800      5.58138500      8.78415400
H           3.01768300      6.00024300      8.50279900
O           4.48657200      5.77029400      7.46215900
H           5.29155300      5.86531500      8.01586600
H           4.69991700      5.09199800      6.83065300
O           6.68416600      6.03469700      9.06141400
H           7.02493200      5.51571400      9.78083800
H           7.25934200      6.85489500      9.05202300
          43
 Energy =  -1789.68195730 a.u.  #Cluster:   10
C           3.80166700      6.96677200     11.62677700
H           3.23366100      6.25674300     11.00272700
H           3.39848500      6.94702600     12.64889100
H           4.84365800      6.57107300     11.67791000
C           4.63204000      8.37370900      9.78664500
H           4.22170400      7.63669200      9.05785800
H           5.64682000      7.97940900     10.06048900
C           4.30832700      9.33225700     12.06418000
H           5.37451200      9.60132200     11.85127800
H           3.73544200     10.26659500     12.08106000
H           4.32755300      8.90095900     13.08043800
C           2.35812800      8.69563200     10.70883800
H           1.71070300      8.62850000     11.59724300
H           2.27682900      9.71192700     10.29225800
H           1.95763400      7.99267500      9.94794000
C           4.72406000      9.76435800      9.14296800
H           4.77588900     10.56611100      9.91250600
H           3.80554000      9.96901600      8.55665000
C           5.93560500      9.86489200      8.22359800
H           5.87082800     10.77907400      7.60539200
H           5.94994700      9.02880900      7.49746900
N           3.78116500      8.35517000     11.04795400
S           7.52484200      9.89515100      9.11143100
O           7.20598400     10.34916600     10.49140300
O           7.89250900      8.42240400      9.14580800
O           8.41274900     10.73281100      8.32929500
P           7.85649800      7.63604200     12.59330200
O           6.40305400      7.43587100     12.64684200
O           8.33940800      9.13970300     12.69272400
H           7.90364800      9.68955300     11.88931200
O           8.55357600      6.93582200     13.84369700
H           9.56964400      7.10218500     13.75772100
O           8.59502900      6.97297600     11.35964000
H           8.37788000      7.53402100     10.48214500
O           2.46073400      5.94652100      8.74046100
H           2.20009200      5.38802500      8.01306500
H           3.34674100      5.64118800      8.98993100
O           5.12379500      5.30382200      9.56521600
H           5.70286300      5.73107400      8.88861900
H           5.72206800      4.95088800     10.21826900
O           6.66331500      6.57253400      7.78856900
H           7.34264800      6.06773000      7.35758500
H           7.17272900      7.27381300      8.31391800
          43
 Energy =  -1789.66879030 a.u.  #Cluster:   11
C           3.37551000      7.18251500     11.66546800
H           3.32863100      6.33097100     10.95158000
H           2.47345200      7.16426100     12.28945200
H           4.25838900      7.01581300     12.33449200
C           4.80915800      8.41158000     10.09440500
H           4.66747500      7.63838200      9.29331900
H           5.62231600      7.98533300     10.76163300
C           3.60663200      9.61380700     11.93759600
H           4.52619600      9.48304600     12.57737200
H           3.67299400     10.60310500     11.46611900
H           2.74525300      9.60655800     12.62054200
C           2.34033600      8.69753700     10.01700800
H           1.39861100      8.75516300     10.58229200
H           2.44157000      9.61222800      9.41268200
H           2.25130500      7.83911700      9.30569500
C           5.27997900      9.73721800      9.49077600
H           5.69178800     10.39862600     10.28773800
H           4.43193300     10.29054300      9.03726400
C           6.34062100      9.50206300      8.42421500
H           6.56434600     10.45463800      7.90036800
H           5.94976400      8.85126600      7.60485300
N           3.53206800      8.49619700     10.92511600
S           7.83165900      8.80846100      9.08460000
O           8.35111500      9.74406800     10.10666500
O           7.40932100      7.51288700      9.77531000
O           8.70210600      8.53540600      7.92809900
P           7.45012600      8.08751700     13.00412600
O           5.97817000      8.16777400     12.78986500
O           8.27971300      9.45526600     12.75062100
H           8.49587300      9.72253000     11.74903400
O           7.84937400      7.74594900     14.55450700
H           8.82388600      7.76254900     14.76621700
O           8.22473100      6.94627200     12.16448200
H           8.03266300      6.90717100     11.10878800
O           3.25786100      6.05546200      8.83066600
H           2.99812800      5.21557400      8.46727200
H           4.24608600      6.12940900      8.63053700
O           5.86575400      5.89450700      8.32585800
H           6.23220400      6.24945500      7.48800200
H           6.51137000      6.17943600      9.02440700
O           7.08415500      7.35207500      6.34496600
H           7.99206100      7.64039900      6.67950100
H           7.22531800      6.97788100      5.48651000
          43
 Energy =  -1789.66096680 a.u.  #Cluster:   12
C           3.57663100      6.74818400     11.34248500
H           3.47896800      6.10671400     10.44032100
H           2.77131500      6.49705000     12.04298200
H           4.54703200      6.45981900     11.82756500
C           4.70533800      8.46235500      9.97275300
H           4.46659700      7.88766300      9.03982900
H           5.65036400      8.00395000     10.38397300
C           3.81778200      9.01598000     12.24965300
H           4.81281000      8.73379700     12.69981400
H           3.84509800     10.09824700     12.06304800
H           3.05596700      8.80458700     13.01262800
C           2.25337000      8.59131900     10.38211400
H           1.41664700      8.33762400     11.04927800
H           2.19861500      9.66625100     10.15037600
H           2.09638900      8.04390000      9.41974100
C           4.93169600      9.94120500      9.63783400
H           5.25371500     10.50129200     10.54812800
H           3.98691300     10.41202100      9.29642900
C           5.98730800     10.10134200      8.55048900
H           5.97479700     11.14224200      8.16520800
H           5.73739200      9.49015700      7.66028500
N           3.58800200      8.21898500     10.98713300
S           7.60740600      9.69507100      9.15599100
O           7.67267800     10.18500100     10.56551800
O           7.59767900      8.15555200      9.22693500
O           8.58141400     10.22257800      8.23063900
P           7.71338700      7.39074400     12.44146600
O           6.22513500      7.40624000     12.41840400
O           8.46269500      8.80635400     12.63687100
H           8.25275800      9.57917800     11.91990800
O           8.32650600      6.49660000     13.66753400
H           9.32045200      6.49145400     13.74738700
O           8.39110800      6.72365800     11.12762700
H           8.39221700      7.35175500     10.22526100
O           2.95379500      7.09635400      7.83310900
H           2.81547300      7.11377300      6.89632200
H           3.43437300      6.24877500      8.03452600
O           4.52522500      5.28783700      8.90959300
H           5.48104200      5.67684500      8.94248900
H           4.64467100      4.38861600      8.62160100
O           7.01874100      5.80249500      8.69020800
H           7.46782900      5.83888800      9.56574800
H           7.20267600      6.69756500      8.30082300
          43
 Energy =  -1789.65384190 a.u.  #Cluster:   13
C           3.85043400      6.98576700     11.81375400
H           3.80293600      6.22972100     10.99671100
H           3.07211200      6.75563700     12.55057600
H           4.84693200      6.85339200     12.30712700
C           4.76268400      8.54809900     10.15762900
H           4.54443900      7.79263300      9.35398700
H           5.75630800      8.24114200     10.59439600
C           3.97158600      9.37984400     12.37783000
H           5.02622400      9.27017200     12.75886200
H           3.85222300     10.42041800     12.04748600
H           3.30941200      9.20247400     13.23750000
C           2.33199400      8.58435000     10.70430100
H           1.55898800      8.45010000     11.47508100
H           2.20826700      9.58182700     10.25521300
H           2.13271400      7.83325800      9.89772300
C           4.87109000      9.95206300      9.55515500
H           5.31817100     10.65503600     10.29681100
H           3.86837400     10.35467900      9.30407500
C           5.73085100      9.93410900      8.29563900
H           5.71930400     10.93713300      7.81973800
H           5.28597400      9.27486800      7.52097700
N           3.72226800      8.39193300     11.26310200
S           7.40020700      9.44373600      8.65085200
O           7.78022900     10.14421700      9.92054700
O           7.27844900      7.94796700      9.00108900
O           8.21803100      9.70693500      7.49398300
P           8.01667500      7.81735900     12.28151900
O           6.58616900      8.06150800     12.60339400
O           8.97863300      9.04482000     11.90659400
H           8.64176000      9.73106800     11.12296800
O           8.84658300      7.08477500     13.48540700
H           9.83936200      7.07149200     13.38498200
O           8.14684000      6.76638100     11.03307000
H           8.17709900      7.19788500     10.04123700
O           3.01996900      6.38279500      8.81025200
H           2.68782500      5.62468000      8.34353300
H           3.97172000      6.49492400      8.48752600
O           5.50815900      6.17319800      7.91536700
H           5.75020000      5.38197800      8.44537900
H           6.25456800      6.81020900      8.07279800
O           6.04424500      5.48316800     10.25264100
H           6.71409400      4.96251200     10.71226700
H           6.45590800      6.37974900     10.18094600
          43
 Energy =  -1789.63854960 a.u.  #Cluster:   14
C           3.87550900      7.01249300     11.93109600
H           3.31213900      6.23982400     11.36626900
H           3.48233600      7.06282400     12.95383100
H           4.93601700      6.64256700     11.99051200
C           4.58368100      8.23279500      9.91535900
H           4.09966400      7.43914700      9.28662700
H           5.61264100      7.81530300     10.15883600
C           4.41613300      9.41375000     12.11558600
H           5.34775000      9.05169100     12.62223200
H           4.76721600     10.29672800     11.53165300
H           3.72666200      9.75130000     12.89798700
C           2.36645700      8.68142400     10.93949500
H           1.75830900      8.67906700     11.85709900
H           2.26062400      9.66615500     10.45988800
H           1.93157000      7.91800700     10.25159000
C           4.68229100      9.53293700      9.11232600
H           4.64506400     10.42557400      9.78514000
H           3.80829800      9.62331200      8.43431200
C           5.96432100      9.57406900      8.28930600
H           5.88613100     10.35371400      7.50253300
H           6.07984000      8.63614800      7.70279600
N           3.81588700      8.35220400     11.22843100
S           7.37208100      9.87046300      9.32045000
O           6.87623000     10.60894200     10.54165400
O           7.79263600      8.49501800      9.87251100
O           8.39567700     10.51202600      8.53212600
P           7.85913100      7.57394200     11.95715300
O           6.79804400      6.74100700     11.29901200
O           7.36693900      9.01088300     12.51409400
H           7.29759900      9.85688300     11.84324800
O           8.22834500      6.86615200     13.40221900
H           9.03812800      7.20200700     13.86091100
O           9.38847100      7.65132300     11.39160000
H           9.48459400      7.96618900     10.42184700
O           2.46569800      5.98271900      9.42951200
H           1.90978500      5.28068900      9.11567300
H           3.28784800      5.95866700      8.85903400
O           4.71295000      6.06027300      7.89109300
H           5.62087300      5.97749000      8.39570300
H           4.78993300      5.49167500      7.13944900
O           7.04063300      5.89555300      8.96158400
H           6.94035000      5.56923800      9.89532200
H           7.36552200      6.82784700      9.10291900
          43
 Energy =  -1789.63545050 a.u.  #Cluster:   15
C           3.82693400      7.20683800     11.76607300
H           3.14578600      6.49245800     11.25418500
H           3.53408900      7.27439300     12.82179800
H           4.84644300      6.74438300     11.72411400
C           4.51416100      8.43140500      9.72810500
H           3.92420100      7.72224000      9.08796900
H           5.49974400      7.88934200      9.88634200
C           4.52369500      9.55308200     11.97579800
H           4.91224600     10.43189800     11.40628000
H           3.88809800      9.90988400     12.79423000
H           5.44850900      9.11509700     12.43116000
C           2.38497300      8.98127600     10.86594800
H           1.81793300      9.00076600     11.80985100
H           2.32119800      9.98008400     10.40727900
H           1.87900300      8.25992200     10.18668800
C           4.72829800      9.75831400      8.99184600
H           4.72204700     10.62074200      9.70314700
H           3.88536600      9.93696700      8.29231900
C           6.03662500      9.75812200      8.21113500
H           6.02325400     10.55381800      7.43873800
H           6.12069300      8.81589300      7.60662200
N           3.82339100      8.55889600     11.08427300
S           7.43861100      9.92907600      9.27018200
O           6.95693600     10.52717000     10.57381100
O           7.84370000      8.49549900      9.67773600
O           8.47696200     10.63987800      8.56528700
P           7.78927800      7.27166600     11.56884000
O           6.65707200      6.64876700     10.79452000
O           7.43345700      8.65885400     12.31878800
H           7.37971800      9.58163100     11.75300600
O           8.04449100      6.32760700     12.89635300
H           8.87614900      6.49865900     13.40560400
O           9.32505500      7.25802900     11.01817400
H           9.47630700      7.76435100     10.13809300
O           2.69005800      6.10041600      9.30189200
H           2.13130700      5.55882100      8.76088500
H           3.58501700      5.61060700      9.34132900
O           5.07266100      4.98583800      9.36420500
H           5.57286500      5.18059200     10.18301400
H           5.58613500      5.46523500      8.65280700
O           6.57935700      6.74528500      8.08822400
H           7.39964500      6.40417100      7.73753800
H           6.82854300      7.07204900      9.02582900
