          45
 Energy =     -0.75892500 a.u.  #Cluster:    1
C          10.80578900     11.70519300     10.54552800
H          10.55446400     11.89742600      9.48102800
H          11.25689300     12.62541800     10.94714200
H          11.57882400     10.90970800     10.53359300
C          10.05333000     10.43780600     12.49405400
H           9.19646900      9.98680000     13.02750400
H          10.67708100      9.58634700     12.14234300
H          10.65687200     11.02213800     13.20194200
C           8.88974000     12.48831000     11.87947000
H           9.53958500     13.06276600     12.55910700
H           8.60837500     13.18957700     11.06339300
H           7.97506700     12.19974700     12.41852600
C           8.64878800     10.46761800     10.47090800
H           7.88308000      9.98267800     11.11958500
H           9.23456300      9.61516100     10.03629200
C           7.97387800     11.30331900      9.37487600
H           8.59133500     12.18689000      9.09820300
H           7.01497900     11.71836500      9.73991500
C           7.72528000     10.47098600      8.11757400
H           7.33400200     11.10514500      7.29976000
H           6.95658500      9.69290500      8.29875300
N           9.59856400     11.28293400     11.33518200
C           9.03443100      9.82828000      7.66062000
O          10.01105700     10.57667200      7.43896200
O           9.06681100      8.58324900      7.59603200
P          12.18925800      8.21034700      8.98888500
O          11.58766700      8.29206500     10.32424300
O          13.64478100      7.57474300      9.07932100
H          14.02662600      7.55180600      8.11809000
O          11.45211900      7.32430600      7.90755900
H          10.50954700      7.78054600      7.69447600
O          12.45011700      9.63446600      8.32578400
H          11.55782400      9.97794100      7.88759700
O           7.47715100      7.47625400      9.49676500
H           8.04355300      7.84619800      8.77584900
H           7.33726800      6.56783400      9.24702500
O           8.97541100      7.83359700     11.81515000
H           9.84794300      7.67269600     11.44509600
H           8.37269800      7.61962100     11.08385900
O           9.85638100     14.34357100      9.78439200
H           9.90856000     13.95911400      8.88283800
H           9.79627200     15.28282000      9.64160000
O           9.93612400     13.20972500      7.28868400
H          10.63083400     13.39825400      6.66854700
H           9.89404500     12.20868200      7.31396800
          45
 Energy =     -0.75661400 a.u.  #Cluster:    2
C          10.82318200     11.43165400     10.92532100
H          10.81529400     11.59526900      9.82692900
H          11.29810300     12.31327000     11.38181800
H          11.46729300     10.54494100     11.09964900
C           9.52438500     10.42283900     12.73593000
H           8.53337500     10.26437700     13.18500200
H           9.95924400      9.40336800     12.55067200
H          10.17194100     10.92615500     13.46753200
C           8.77640900     12.51630000     11.75843200
H           9.31402500     13.05689200     12.55431200
H           8.79314300     13.18949500     10.87121200
H           7.73044700     12.37659100     12.06778700
C           8.62749300     10.40131300     10.44368600
H           7.80752500      9.85698000     10.96451800
H           9.30207500      9.60129700     10.02979700
C           8.06291600     11.25657200      9.30438700
H           8.83888200     11.94262900      8.89339500
H           7.24085100     11.90469600      9.66120200
C           7.54557100     10.35460500      8.18376600
H           6.98805800     10.94522300      7.43232000
H           6.84215600      9.59137500      8.56666700
N           9.43395000     11.20318000     11.45499300
C           8.73699400      9.68717300      7.49331100
O           9.49404000     10.40884700      6.82032000
O           8.88988800      8.45898600      7.67924000
P          12.26148400      8.70779900      8.12666600
O          11.95615300      9.08519600      9.51197100
O          13.77715100      8.24576700      7.99821500
H          13.93706600      8.00323700      7.00454600
O          11.42934400      7.50413500      7.52624700
H          10.40190900      7.80306500      7.50258000
O          12.14906100      9.89901200      7.07785800
H          11.12514100     10.02489700      6.82860600
O           7.90167600      7.53704000      9.97072000
H           8.23757600      7.84667300      9.08347100
H           7.63565100      6.63552400      9.82448800
O          10.20855600      7.78063100     11.56618300
H          10.90988100      7.93486700     10.92362800
H           9.42220000      7.57759100     11.03703800
O          10.31773700     14.07307000      9.79334200
H          10.54220000     13.56739900      8.98237100
H          10.43801900     14.98491900      9.54607800
O          10.89868200     12.63053700      7.54324100
H          11.74475200     12.17896200      7.46066500
H          10.25853700     11.95568200      7.21990700
          45
 Energy =     -0.75571800 a.u.  #Cluster:    3
C          10.67480300     11.28866600     10.43927400
H          10.46807300     11.57349300      9.38899100
H          11.48632600     11.94289100     10.79988700
H          11.05570800     10.24600700     10.42867100
C           9.77346200     10.85222300     12.66162000
H           8.92089200     10.93839900     13.34872800
H          10.04688200      9.76723700     12.59537300
H          10.63779300     11.37432700     13.10084400
C           9.04611200     12.83347700     11.44318900
H           9.86455900     13.43113100     11.88907700
H           8.84751600     13.30095600     10.45655400
H           8.14479700     12.93833800     12.06250100
C           8.31961400     10.56563100     10.70430500
H           7.56785200     10.35722300     11.49448100
H           8.74913600      9.56444000     10.42506500
C           7.64400500     11.20990000      9.48721800
H           8.24818800     12.04381400      9.06907400
H           6.68150700     11.67098100      9.78139100
C           7.40876500     10.18189700      8.38326000
H           6.81368400     10.61973800      7.55912000
H           6.82627000      9.31551400      8.75396800
N           9.44760700     11.39642300     11.29760200
C           8.74471600      9.70902000      7.80484300
O           9.55284500     10.56921800      7.40219100
O           8.95250700      8.48020300      7.78968600
P          12.45075500      8.49759100      7.97604300
O          12.46418700      8.50270600      9.44061800
O          13.87269700      8.04594700      7.41887800
H          13.81742900      8.06554400      6.38737700
O          11.44593200      7.49808100      7.26568500
H          10.45782600      7.85498800      7.40676600
O          12.23557100      9.91875200      7.29377800
H          11.20992500     10.14206400      7.27199100
O           8.20114500      7.18170700     10.01155500
H           8.43362600      7.62201200      9.15467000
H           8.22719700      6.25013600      9.81385900
O          10.34987400      8.09885600     11.54832200
H          11.10148400      8.04648200     10.94871600
H           9.62046600      7.66958100     11.07365900
O          11.05188600     14.13013700      9.81948100
H          10.59950200     13.84138500      9.00506300
H          11.74928800     14.70683600      9.52405200
O           9.69036200     13.23168700      7.55857300
H           9.96129500     13.50233100      6.68755400
H           9.59595800     12.24204400      7.48646700
          45
 Energy =     -0.75560600 a.u.  #Cluster:    4
C          10.89832000     11.77692300     10.36405300
H          10.50131700     11.98445000      9.34767900
H          11.34349500     12.71151300     10.73844300
H          11.70892400     11.03267800     10.22257600
C          10.48457800     10.41480800     12.34914500
H           9.73423200      9.89365600     12.97185200
H          11.11179900      9.61607100     11.89503600
H          11.13504500     11.02228800     12.99319700
C           9.11965900     12.39151300     11.95788200
H           9.82469500     13.03254900     12.51267500
H           8.62210700     13.05000400     11.21846300
H           8.35253500     12.01895700     12.65433000
C           8.83426700     10.39880600     10.51848300
H           8.18046400      9.85689000     11.24021200
H           9.41287900      9.59109300      9.99694900
C           7.98810000     11.21207900      9.52929300
H           8.51673200     12.13698000      9.20476000
H           7.05526200     11.56035500     10.01263800
C           7.64277200     10.38871100      8.28894400
H           7.12351700     11.01335900      7.53747500
H           6.94604800      9.56321100      8.53829300
N           9.83160500     11.25427200     11.28458700
C           8.92417000      9.83326700      7.66813000
O           9.82297800     10.64332600      7.35367100
O           9.02048200      8.59380400      7.56976900
P          12.30568700      8.38467600      8.56730600
O          11.86426800      8.39528800      9.96611100
O          13.79614600      7.83786100      8.46541300
H          14.06083100      7.86133100      7.46557700
O          11.49751400      7.48217900      7.55237100
H          10.50975600      7.88198500      7.46991700
O          12.40253400      9.83830700      7.92444200
H          11.44656800     10.13582400      7.60257400
O           7.73341900      7.36155800      9.61556400
H           8.18890200      7.77657000      8.84227400
H           7.61532400      6.45123200      9.36162900
O           9.48042600      7.76587800     11.74315800
H          10.30887200      7.66697900     11.26550800
H           8.80616100      7.52783100     11.08545100
O           9.87090900     14.41140200      9.68983500
H           9.75642900     14.02044800      8.79817600
H           9.80511800     15.35025600      9.55128500
O           9.50970800     13.25984500      7.22631900
H          10.06197800     13.49904200      6.49083300
H           9.56348800     12.25996800      7.25774200
          45
 Energy =     -0.75552100 a.u.  #Cluster:    5
C          10.38933000     10.76247400     10.54399000
H          10.26446900     11.34514400      9.61031000
H          11.30112200     11.12915900     11.04007000
H          10.56077600      9.70604400     10.24275600
C           9.40549800      9.97781900     12.62632900
H           8.48840900      9.87222000     13.23229800
H           9.70221600      8.95359100     12.31422400
H          10.20930200     10.37776800     13.26264600
C           8.97175200     12.26226500     11.90344300
H           9.92030900     12.71347900     12.24659200
H           8.61560000     12.92178000     11.08147000
H           8.23300000     12.30698200     12.71534300
C           7.95141600     10.36707000     10.67402100
H           7.09472300     10.31529700     11.38024100
H           8.14086000      9.30564400     10.36245100
C           7.60255900     11.21718900      9.44350500
H           8.36172900     12.01015200      9.24834100
H           6.65713800     11.76624700      9.61943100
C           7.46812200     10.35329900      8.18908100
H           7.07247800     10.95112700      7.34522600
H           6.76019100      9.51921500      8.34006300
N           9.17836200     10.85720100     11.42620200
C           8.84475500      9.80471300      7.80278500
O           9.59026400     10.52692600      7.12140500
O           9.13765300      8.66458300      8.22383900
P          12.62975200      9.10955800      7.90699000
O          12.75510000     10.20653800      8.87048700
O          14.03194700      8.42249300      7.61608100
H          13.86090000      7.66064900      6.93627900
O          11.71209100      7.90237100      8.39300300
H          10.69757100      8.15366900      8.19395200
O          12.07865700      9.50778000      6.47247700
H          11.09617500      9.89277700      6.60451300
O           9.65748300      7.33340200     10.54030900
H           9.38550000      7.73071600      9.68373600
H          10.53647300      6.99067000     10.36379000
O           7.43295600      7.87599300     12.24581200
H           6.85460100      7.12260100     12.33047800
H           8.17292000      7.56695300     11.70003000
O          10.05259400     13.90986800      9.97033700
H          10.45469700     13.49096900      9.17079800
H          10.14839600     14.84373300      9.81535600
O          11.11056100     12.76832800      7.78587200
H          11.90527100     12.25828200      7.99037300
H          10.50433800     12.09527900      7.41329000
          45
 Energy =     -0.75551100 a.u.  #Cluster:    6
C          10.56249900     12.20488400     10.99709100
H           9.90043400     13.06777700     10.78036600
H          11.32072600     12.53460600     11.72069200
H          11.09144100     11.96063500     10.04854400
C          10.73950500     10.04416400     12.12164300
H          10.21913900      9.11543900     12.42191200
H          11.52967900      9.75035400     11.39320800
H          11.23499500     10.46576300     13.00641500
C           8.80926700     11.48421300     12.54963000
H           9.31782300     12.01500700     13.36861700
H           8.05395600     12.16159700     12.11593200
H           8.27137500     10.61654200     12.98706700
C           9.03494200     10.32696500     10.38419900
H           8.30507900      9.61458100     10.83512400
H           9.77473800      9.69331300      9.82766700
C           8.30973800     11.25566000      9.40807600
H           9.01919500     11.95848300      8.91368400
H           7.56382000     11.88771800      9.92008100
C           7.63401800     10.40405600      8.32862400
H           7.05075500     11.04104500      7.63768400
H           6.92698500      9.67449200      8.75875000
N           9.78392900     11.02877600     11.50236600
C           8.73206600      9.68176800      7.54207400
O           9.35033700     10.33176400      6.68066100
O           8.98124500      8.49620700      7.85379000
P          12.38385300      9.20605300      8.03160200
O          12.18672300      9.89377100      9.31102200
O          13.91314900      8.81200800      7.84584200
H          13.99751300      8.34880300      6.92384300
O          11.61528300      7.83129400      7.85371000
H          10.57346100      8.03322300      7.74865100
O          12.06272000     10.07797300      6.74277900
H          11.01066000     10.09192700      6.59594900
O           8.94980500      7.30049200     10.25463400
H           8.80565200      7.71874600      9.36579000
H           9.74734500      6.79015200     10.13599500
O           8.02420200      8.18818000     12.74842200
H           7.43401500      7.52725300     13.09753700
H           8.32432200      7.82869300     11.89227100
O           9.87859900     14.27995100      9.12737500
H          10.11575900     13.74846200      8.33539700
H           9.72397700     15.15552100      8.79107800
O          10.47229300     12.79954400      6.92295000
H          11.35981900     12.43295500      6.87421000
H           9.90317900     12.00921300      6.77706000
          45
 Energy =     -0.75397200 a.u.  #Cluster:    7
C          10.75224900     11.80287700     11.11613400
H          10.23351500     12.72735300     10.78942400
H          11.44210000     12.06821500     11.92864500
H          11.36881300     11.46166700     10.25328600
C          10.53156200      9.65121600     12.25081700
H           9.85276400      8.83167500     12.55344400
H          11.30361200      9.20704300     11.58424000
H          11.03838800     10.03002200     13.14884800
C           8.77673900     11.34011800     12.48387900
H           8.07057200     10.56326300     12.84354300
H           9.26651100     11.79012400     13.36009100
H           8.18417400     12.12484800     11.97998300
C           9.05274100     10.12811200     10.35649400
H           8.19105100      9.53318700     10.74279000
H           9.74224600      9.39016400      9.86740900
C           8.55733200     11.14100400      9.32411400
H           9.41069200     11.71444700      8.89664600
H           7.88364300     11.89440900      9.76933000
C           7.85438400     10.39548900      8.18643600
H           7.33264300     11.10422700      7.51720300
H           7.08969200      9.69111200      8.55803800
N           9.78040000     10.74397300     11.53887000
C           8.93967400      9.65494000      7.40074200
O           9.60184400     10.30516700      6.57348700
O           9.14206500      8.45321700      7.69400300
P          12.53113900      9.11513700      8.10787600
O          12.23552800      9.69049200      9.42359600
O          14.07552600      8.74519800      8.00619300
H          14.23431900      8.36036400      7.05891100
O          11.79348300      7.76010400      7.75020300
H          10.75086300      7.95856000      7.66009000
O          12.30786700     10.09837600      6.87884400
H          11.27792700     10.10282400      6.63129700
O           7.89854300      7.30663600      9.72711800
H           8.33375100      7.77385400      8.95132600
H           8.02965000      6.38532600      9.54022700
O           7.54913300      8.18094000     12.35933400
H           6.79542200      7.70793800     12.69703200
H           7.67945000      7.83070900     11.45403300
O           9.59768200     14.09183500      9.31269500
H           9.94553100     13.65616500      8.50477600
H           9.46728300     14.99903800      9.05917300
O          10.57343600     12.81981800      7.04791900
H          11.48224300     12.50900500      7.05871400
H          10.07183800     12.00982700      6.79276100
          45
 Energy =     -0.75368100 a.u.  #Cluster:    8
C          10.91837700     11.57016200     10.31976900
H          10.57197600     11.78260200      9.28607500
H          11.38168500     12.49488400     10.69821600
H          11.71031500     10.80011200     10.22360300
C          10.36341400     10.13110600     12.21308500
H           9.60786800      9.84637000     12.96624100
H          10.68316200      9.18732000     11.71490500
H          11.23839600     10.55567000     12.72564400
C           9.19300000     12.25825300     11.93517300
H           9.94525000     12.78405300     12.54524900
H           8.78232000     13.00299400     11.22381900
H           8.37310600     11.92757100     12.59236000
C           8.72361400     10.37590600     10.41026200
H           7.97257700      9.95837200     11.12516800
H           9.20616600      9.48678500      9.92558200
C           8.01902300     11.25764300      9.37271500
H           8.64200500     12.13395400      9.08436000
H           7.09282000     11.69129100      9.79518200
C           7.68635400     10.45094600      8.11695400
H           7.22317200     11.09849200      7.34817100
H           6.95523700      9.64980200      8.33177000
N           9.79996700     11.09693200     11.20396000
C           8.97106100      9.84948700      7.54449200
O           9.88654200     10.64434500      7.22597600
O           9.05548100      8.61152300      7.48145000
P          12.33150400      8.36617300      8.37773200
O          11.80419100      8.15304800      9.73152500
O          13.83543800      7.86209400      8.27414400
H          14.15245700      8.05022600      7.30706800
O          11.58197800      7.62237500      7.19975600
H          10.56782600      7.96910300      7.19080700
O          12.42256200      9.90032200      7.96192900
H          11.48941000     10.19761100      7.56885900
O           8.97167600      6.98663600      9.78370100
H           8.81678900      7.45535800      8.93864400
H           9.93684100      6.96581000      9.84246500
O           8.19388700      8.09872600     12.12015200
H           7.66817700      7.43888700     12.55892200
H           8.45989700      7.67729300     11.26944600
O          10.04712000     14.27124000      9.62855900
H           9.92676700     13.92093600      8.71920200
H          10.03113100     15.21642800      9.52470900
O           9.66142500     13.26040300      7.12080800
H          10.26452900     13.48418400      6.42127800
H           9.67351800     12.25659700      7.14013500
          45
 Energy =     -0.75362600 a.u.  #Cluster:    9
C          11.06856900     11.56555500     10.48035800
H          10.72217800     12.15403700      9.59830300
H          11.75360700     12.19632000     11.06183300
H          11.64839300     10.70163900     10.07741000
C          10.41369500     10.03507000     12.28108000
H           9.57915900      9.55121700     12.83535700
H          10.93919900      9.21729200     11.72986500
H          11.12299700     10.45949700     13.00272000
C           9.29364400     12.23237000     12.05990900
H           8.35738200     11.93621900     12.55993300
H           9.98077300     12.62775300     12.82397900
H           9.06427300     13.07720500     11.36761800
C           8.85300500     10.40733400     10.41753900
H           8.05834700      9.96105600     11.07197800
H           9.35285400      9.52516700      9.92357000
C           8.21835100     11.32887100      9.37471900
H           8.95015300     12.09501900      9.01492600
H           7.38451400     11.90725500      9.81775600
C           7.70638600     10.52229600      8.17761200
H           7.19477500     11.18880600      7.45499300
H           6.95097400      9.77307500      8.48926700
N           9.90322600     11.07447900     11.30444900
C           8.87185700      9.82565700      7.49310400
O           9.69632600     10.53383900      6.84270000
O           9.00348800      8.58308800      7.65285700
P          12.00407000      8.53792800      8.23610800
O          11.45003900      8.69225700      9.61471300
O          13.55075300      8.01228100      8.23924600
H          13.94951500      7.80910000      7.34774300
O          11.25700100      7.50436600      7.24627500
H          10.20548000      7.69095800      7.09225200
O          12.07194100      9.92933800      7.39845100
H          11.19977200     10.12727800      6.77940600
O           9.06767500      7.27842200     10.11240200
H           8.71278700      7.54190600      9.23969500
H          10.02146800      7.51007800     10.08763000
O           7.98200500      8.34043900     12.30885500
H           7.36294700      7.78295300     12.76119100
H           8.33073800      7.80055000     11.54195400
O           9.63019000     14.14000200      9.64305900
H          10.21921300     13.74619500      8.95262700
H           9.30294400     14.95261900      9.27335700
O          10.66466500     12.71922100      7.55715100
H          11.38008400     12.06573400      7.50397900
H           9.91861200     12.29828400      7.06008500
          45
 Energy =     -0.75297100 a.u.  #Cluster:   10
C          10.90324300     11.56691900     10.28658200
H          10.51495800     11.80391200      9.27354100
H          11.39745500     12.47735600     10.66073200
H          11.67898900     10.78783200     10.14083600
C          10.41194400     10.09403000     12.17039400
H           9.66586700      9.74995100     12.91185900
H          10.75130600      9.18243100     11.62705500
H          11.27843300     10.51357600     12.69984100
C           9.26848700     12.24737600     11.99740200
H          10.06077500     12.75459300     12.57183000
H           8.82641600     13.00899800     11.32378100
H           8.48555300     11.91359000     12.69660300
C           8.69222300     10.40906000     10.45659800
H           7.96042400     10.00565900     11.19358100
H           9.13371000      9.51516500      9.94185400
C           7.96672900     11.31998700      9.45852700
H           8.59366900     12.19118600      9.16322300
H           7.06369500     11.76239400      9.92013100
C           7.57706000     10.54033100      8.20224400
H           7.09883100     11.20846200      7.46071800
H           6.84086000      9.74715300      8.42806200
N           9.81930400     11.09307500     11.21265500
C           8.83274900      9.92913400      7.57729400
O           9.73725200     10.71874600      7.21743500
O           8.90799800      8.69062700      7.51720200
P          12.23734900      8.41549500      8.19983800
O          11.80328600      8.17569800      9.58191400
O          13.72885900      7.91037400      7.98363100
H          13.98209600      8.12284300      7.00299300
O          11.40723900      7.69636600      7.06109700
H          10.39651000      8.04638400      7.12516300
O          12.30432200      9.95784100      7.81089800
H          11.35242400     10.26104000      7.47134400
O           8.98419000      7.05136800      9.82870200
H           8.76220000      7.51803400      8.99900200
H           9.95099300      7.02240600      9.80392100
O           8.50450100      7.97668900     12.34837800
H           8.11941300      7.24177400     12.81408600
H           8.64764600      7.64242500     11.43579600
O          10.03332600     14.28986000      9.69397300
H           9.87455400     13.96195700      8.78216200
H          10.02568700     15.23739300      9.61192600
O           9.53636500     13.33954900      7.17994100
H          10.11177200     13.57535100      6.46107000
H           9.53935900     12.33563700      7.17421100
          45
 Energy =     -0.75253000 a.u.  #Cluster:   11
C          11.00934300     11.90411600     10.16999900
H          10.46545500     12.54770000      9.44100400
H          11.78110600     12.51087000     10.66139000
H          11.53134500     11.13297900      9.55670400
C          10.84792000     10.38697900     12.10108400
H          10.17858300      9.76538500     12.73138800
H          11.45242800      9.64269200     11.51807200
H          11.53201200     10.95472300     12.74170200
C           9.38449600     12.37061700     11.96149000
H          10.10027200     12.91692700     12.59486500
H           8.91547000     13.12656100     11.28589800
H           8.59355600     11.96303200     12.61053500
C           9.01574900     10.41938200     10.45104500
H           8.39773500      9.88460000     11.21436800
H           9.56698700      9.57787700      9.94232400
C           8.13080600     11.19994500      9.47723700
H           8.63998800     12.13280500      9.12958400
H           7.20779800     11.54158400      9.98653400
C           7.75445600     10.35546200      8.25891200
H           7.13498700     10.94307900      7.55331500
H           7.12409000      9.48827800      8.56347500
N          10.06143300     11.27796300     11.16463200
C           8.99888100      9.84949400      7.54894000
O           9.87127900     10.66536800      7.13903200
O           9.13319600      8.59506000      7.44854300
P          12.09770300      8.47805000      8.51295900
O          11.42906400      8.49740200      9.83923400
O          13.63142900      7.91590800      8.56908800
H          14.06048900      7.72312500      7.68925200
O          11.46598700      7.63512100      7.29798800
H          10.44026500      7.88895700      7.01981400
O          12.26403500      9.99834300      7.92359300
H          11.50810000     10.32877700      7.27480200
O           7.86207800      7.32001800      9.54683200
H           8.41090900      7.68720800      8.81037400
H           7.58097200      6.46048000      9.25604900
O           9.37035200      7.88975800     11.72316800
H          10.16598800      7.71740600     11.18976000
H           8.64280600      7.46771200     11.23156600
O           8.97860200     14.27913100      9.56547100
H           9.85669400     14.40101500      9.17135200
H           8.39083400     14.18242700      8.80097900
O           9.75077100     13.30585800      7.49750700
H          10.16167900     13.60559900      6.69343400
H           9.66189700     12.30425400      7.38472700
          45
 Energy =     -0.75240800 a.u.  #Cluster:   12
C          10.92406500     11.86357100     10.49399100
H          10.48776000     12.37533300      9.60496000
H          11.50696900     12.60107800     11.06108100
H          11.62675400     11.09010600     10.10222500
C          10.52617700     10.32376500     12.35776500
H           9.80174000      9.66285500     12.87422500
H          11.22972600      9.61799800     11.84510100
H          11.09558400     10.89752400     13.09799600
C           9.04782700     12.28084000     12.04188000
H           9.65064900     12.81181200     12.79538600
H           8.69343900     13.05415400     11.31887900
H           8.16659000     11.85444700     12.54561400
C           8.94327700     10.34392400     10.46208700
H           8.28830600      9.71983000     11.11532400
H           9.60717600      9.58862200      9.94937000
C           8.11303000     11.13426300      9.44858500
H           8.69895000     11.99286200      9.03543500
H           7.22724300     11.58818400      9.93438200
C           7.65470100     10.23985300      8.29412700
H           7.00495300     10.80943600      7.60048400
H           7.03448000      9.39603400      8.66874500
N           9.85096300     11.21346400     11.33523900
C           8.85705000      9.69931500      7.53803400
O           9.60759900     10.49491400      6.91257400
O           9.08505300      8.45520400      7.61473200
P          12.15855500      8.81876200      8.32685300
O          11.64275500      9.03328600      9.70601700
O          13.74795900      8.43988600      8.29886600
H          14.12601500      8.19019100      7.41022600
O          11.49711200      7.65855600      7.42232100
H          10.43867100      7.75822100      7.22121100
O          12.06575500     10.15546600      7.39414400
H          11.19128700     10.22714000      6.78557200
O           7.91495200      7.21473600      9.72764100
H           8.35265000      7.61474400      8.92784200
H           7.63523300      6.34681900      9.46188000
O           9.76340800      7.78681000     11.59057300
H          10.49816000      7.81017400     10.95836900
H           9.04538800      7.29527300     11.14838300
O           9.08933200     14.13747500      9.56361300
H           9.73868300     13.80461000      8.89440600
H           8.64725000     14.87301100      9.15396900
O          10.31162300     12.79785000      7.53376100
H          11.08922700     12.21832100      7.49428300
H           9.60594500     12.27929800      7.07186700
