          39
 Energy =    -1277.95931720 a.u.  Frame:     1 Step:     1 Geom:     1
C          13.89254800     17.29993800     15.43421100
H          14.38408100     16.71267000     14.60579700
H          14.68340900     17.63283600     16.11507700
H          13.23663900     16.56779200     15.95397600
C          12.49502000     19.24287800     16.00793700
H          11.93839800     20.12177300     15.64370800
H          11.79208100     18.61656800     16.58850400
H          13.27111200     19.60223900     16.70374600
C          14.01261600     19.34272200     14.06217500
H          13.44935500     20.08238600     13.46122200
H          14.74859400     19.86219200     14.68795300
H          14.59333500     18.75048500     13.30040800
C          11.98158900     17.88574200     13.98817900
H          11.31750900     17.23670000     14.61991400
H          12.46718700     17.16727700     13.26495800
C          11.14732600     18.94480300     13.26059800
H          11.72599000     19.88746500     13.11647400
H          10.25590100     19.21381500     13.85929800
C          10.70694400     18.44152800     11.88285500
H          10.08949000     19.20372200     11.36583000
H          10.06779400     17.53789100     11.96187900
N          13.09736000     18.45234400     14.86488900
C          11.93758500     18.14000900     11.04498100
O          12.82508600     18.97469000     10.85287400
O          11.99009900     16.90675600     10.62752000
P          15.03248800     16.55005600     11.47650000
O          14.36596300     16.15542500     12.76670200
O          16.56898500     15.98043500     11.39509000
H          16.99263200     16.00176800     10.49573100
O          14.32801000     16.22627100     10.13056600
H          13.06803600     16.56425900     10.07975500
O          15.25985100     18.19305300     11.51705100
H          14.62495600     18.73356100     10.91805800
O          12.18934900     14.75607000     12.94249200
H          11.88730300     15.31075000     12.20770600
H          13.18127900     14.84701900     12.93418700
O          11.54874200     15.43316700     15.43830500
H          11.07330400     14.71946100     15.84275400
H          11.78206900     15.11152000     14.51016300
          39
 Energy =    -1277.95854050 a.u.  Frame:     2 Step:     2 Geom:     2
C          13.96555100     17.13374400     15.50908300
H          14.62690500     16.78429700     14.67208700
H          14.61035200     17.35344800     16.36890600
H          13.29676900     16.28724000     15.77540300
C          12.26102600     18.76860900     16.20195800
H          12.82806600     19.00575200     17.11503400
H          11.65843900     19.65010800     15.93213000
H          11.55612300     17.94077800     16.44826700
C          14.13573900     19.44905200     14.71304500
H          13.61972900     20.35466200     14.36090000
H          14.78975100     19.71423700     15.55481400
H          14.79962800     19.10306100     13.87142900
C          12.33628400     17.95912600     13.85103000
H          11.64834900     17.11721000     14.12479000
H          13.05927600     17.51893500     13.10255300
C          11.54510400     19.10093700     13.20805900
H          12.22127700     19.93833900     12.92809800
H          10.79261200     19.51353000     13.90588700
C          10.84132000     18.60087200     11.93850600
H          10.38054800     19.45037400     11.39637900
H          10.01865300     17.90143700     12.17910400
N          13.16805300     18.34520400     15.07011600
C          11.86148100     17.91470800     11.03432300
O          12.68768900     18.63193400     10.41840300
O          11.86700800     16.64857900     11.02126000
P          15.15529300     16.68512000     11.43175900
O          15.04744800     17.33989000     12.76592900
O          16.59970500     15.94606000     11.21314600
H          16.77991200     15.60443300     10.29451200
O          14.06079200     15.48291100     11.26172800
H          13.16643900     15.75258100     10.73637200
O          14.99230400     17.56513000     10.10297500
H          14.02327300     18.10140400      9.97293200
O          11.70079600     15.10326100     13.04776600
H          12.60557700     14.95391500     12.72308400
H          11.25140900     15.57642000     12.30290800
O          11.30054100     15.72597900     15.68066100
H          10.83608200     14.99404600     16.07275700
H          11.39471600     15.49270800     14.71192800
          39
 Energy =    -1277.98116990 a.u.  Frame:     3 Step:     3 Geom:     3
C          13.77381300     17.67676100     15.61013200
H          14.38280800     17.09219500     14.87908400
H          14.47129500     18.16406700     16.30377000
H          13.16541300     16.93391700     16.15887800
C          12.20749500     19.52625000     15.91647400
H          11.59755200     20.30903200     15.43283600
H          11.53411300     18.91214800     16.53973200
H          12.92674900     20.02778700     16.58457200
C          13.78720200     19.54258100     14.03921000
H          13.20040100     20.20281300     13.37102800
H          14.47828400     20.14537600     14.64043800
H          14.39442200     18.91909500     13.34061100
C          11.88703700     17.93221000     14.05193300
H          11.33594900     17.21195100     14.69832200
H          12.46076300     17.28557100     13.33185500
C          10.91392600     18.85824300     13.30897800
H          11.32721300     19.88260500     13.19521900
H           9.96937300     18.96345300     13.87333600
C          10.62657700     18.31322300     11.90879800
H          10.02643000     19.02533500     11.31623000
H          10.03878000     17.37564600     11.95276300
N          12.90938700     18.67870600     14.89525200
C          11.95839800     18.07338800     11.18312800
O          12.82370300     18.95939900     11.26150300
O          12.09224700     16.95631800     10.63217500
P          15.39207600     16.59722000     11.50739900
O          15.04061200     16.32934700     12.90972900
O          16.88568800     16.12462100     11.22335700
H          17.08447200     16.33545300     10.22996000
O          14.53618600     15.86167500     10.40233700
H          13.55377700     16.30109700     10.40104800
O          15.40671600     18.14083600     11.13325600
H          14.40054500     18.48719000     11.05916800
O          11.10099700     15.03829900     12.28057000
H          11.43850000     15.71673600     11.64326400
H          11.17454000     14.21564600     11.80568200
O          12.77372600     15.15883300     14.51086000
H          13.60812700     15.22178800     14.03477300
H          12.12472400     15.00322100     13.80235900
          39
 Energy =    -1277.97785310 a.u.  Frame:     4 Step:     4 Geom:     4
C          13.98360900     17.24566500     15.41373500
H          14.65647300     16.93310800     14.58008400
H          14.61524500     17.56877600     16.25075700
H          13.41960300     16.34217900     15.72354400
C          12.19164700     18.74224600     16.13255200
H          11.44603900     19.49616700     15.83271400
H          11.63779500     17.86216800     16.52467300
H          12.79528900     19.15360200     16.95523300
C          13.86141000     19.51463100     14.51336900
H          13.23852200     20.40928600     14.37061500
H          14.66514300     19.75026700     15.22679900
H          14.36008400     19.29602200     13.53410700
C          12.16932100     17.79650900     13.85795700
H          11.41813700     17.10296000     14.30694600
H          12.81035000     17.15524500     13.19044900
C          11.44648900     18.85799800     13.02509700
H          12.15938800     19.58932300     12.58478100
H          10.72713500     19.43189100     13.63272300
C          10.72228500     18.15189300     11.87190600
H          10.10869300     18.86443000     11.29365300
H          10.04196500     17.35991500     12.22954900
N          13.05039800     18.33875000     14.96797700
C          11.81300400     17.56368500     10.96307300
O          12.36631500     18.31199700     10.15722900
O          12.12097200     16.35802000     11.17916500
P          15.47856100     17.16095300     11.28239500
O          15.28757200     17.64955000     12.65654800
O          17.02286100     16.84717500     11.03922400
H          17.11414700     16.51722900     10.06353900
O          14.75567700     15.79655400     10.93514000
H          13.69624900     15.96436600     10.95293200
O          15.12381000     18.18849500     10.12982800
H          14.06435600     18.25094800     10.05218900
O          11.03339300     14.98586700     13.12098600
H          11.42765800     15.54543400     12.37225800
H          11.09224100     14.09846100     12.79116700
O          11.45144300     15.47616700     15.80363700
H          10.97408800     14.79924000     16.27084600
H          11.32265700     15.26286200     14.85065100
          39
 Energy =    -1277.98049810 a.u.  Frame:     5 Step:     5 Geom:     5
C          13.66565900     17.66061500     15.70537200
H          14.29213200     17.04353000     15.02053500
H          14.33728700     18.12595800     16.43874500
H          12.99353500     16.94881800     16.22052200
C          12.19351000     19.59884800     15.90101100
H          11.65537000     20.40699800     15.37529300
H          11.45571800     19.03911400     16.50202100
H          12.90972200     20.07112300     16.59336900
C          13.84956300     19.48279000     14.09299900
H          13.32775700     20.16442500     13.39250500
H          14.55332400     20.05529100     14.70901800
H          14.44258300     18.81070700     13.42783000
C          11.86688600     17.98066300     14.05563500
H          11.26842200     17.28266200     14.68352900
H          12.43903900     17.31338900     13.35308900
C          10.95452600     18.94258600     13.28182100
H          11.41796400     19.94532900     13.16723200
H          10.00298200     19.09716000     13.82228600
C          10.67656600     18.39530000     11.88076800
H          10.11471100     19.12268400     11.26951500
H          10.05527900     17.47944300     11.91941900
N          12.88982800     18.69005800     14.93010900
C          12.01467700     18.10299200     11.18627200
O          12.91244700     18.95346600     11.28922100
O          12.11718700     16.98292000     10.63551000
P          15.40565500     16.49050900     11.52833000
O          15.04896600     16.16831300     12.91620000
O          16.88630400     15.99161700     11.21977400
H          17.09109500     16.24278000     10.23744000
O          14.53411900     15.83044000     10.38766900
H          13.56547400     16.29584800     10.39813900
O          15.46687400     18.04909300     11.22467900
H          14.47528300     18.42455300     11.12512600
O          11.03399300     15.10643500     12.27262000
H          11.40539100     15.76962700     11.63764400
H          11.08857200     14.27902000     11.80311800
O          12.68177200     15.19077400     14.51875900
H          13.52416900     15.20424800     14.05287400
H          12.03568400     15.04990500     13.80402000
          39
 Energy =    -1277.97840410 a.u.  Frame:     6 Step:     6 Geom:     6
C          14.11115300     17.16224800     15.36613800
H          14.71041500     16.79849000     14.49777600
H          14.81068900     17.42252200     16.17045400
H          13.48706500     16.30908300     15.70165800
C          12.48640100     18.79563400     16.17812600
H          13.15823200     19.13858200     16.97907900
H          11.79934400     19.61776500     15.92031900
H          11.87322200     17.96171600     16.58266900
C          14.14439400     19.44363500     14.49186200
H          13.59149100     20.38600600     14.36776200
H          14.98610200     19.61299500     15.17960200
H          14.59120700     19.18662600     13.49678400
C          12.28398400     17.88583300     13.89732300
H          11.50160000     17.24447000     14.37036900
H          12.84355800     17.21121500     13.19432300
C          11.60909700     19.01671300     13.11764200
H          12.35618500     19.69581200     12.65003800
H          10.97162900     19.63644800     13.77011300
C          10.77102400     18.39338200     11.99466400
H          10.16853900     19.16087000     11.47801000
H          10.06508700     17.63408700     12.37259200
N          13.25579800     18.33634200     14.97284800
C          11.75891200     17.77112000     10.99462100
O          12.36580600     18.53003700     10.23661300
O          11.93058200     16.52450800     11.08147900
P          15.36680000     17.00367700     11.13543000
O          15.27485200     17.45419500     12.53278400
O          16.86313800     16.55100800     10.82115800
H          16.88562100     16.24742200      9.83301000
O          14.50368900     15.72766600     10.77037900
H          13.46784200     15.99827800     10.81107700
O          15.07092800     18.10292100     10.03498300
H          14.02041600     18.28883600     10.02311600
O          10.99998000     15.17402800     13.12330000
H          11.03686700     14.28566000     12.79218400
H          11.32767500     15.73077500     12.34179100
O          11.45741400     15.59891600     15.82124300
H          10.92128400     14.96117600     16.28033000
H          11.31200200     15.40934000     14.86637900
          39
 Energy =    -1277.98021150 a.u.  Frame:     7 Step:     7 Geom:     7
C          13.86269500     17.42613100     15.55192600
H          14.11766700     16.65477200     14.78625600
H          14.80560500     17.77614000     15.99503700
H          13.26557300     16.91204800     16.32555100
C          12.62778400     19.49622300     15.99542400
H          13.47544900     19.88808800     16.58116700
H          12.08881900     20.35585800     15.55983900
H          11.93908500     18.98693200     16.69258400
C          14.00966300     19.28401100     13.98393700
H          13.47253900     20.02057200     13.35514100
H          14.82744000     19.78625800     14.51549600
H          14.46504600     18.57457000     13.25431100
C          11.89419400     17.96903000     14.19758200
H          11.26385800     17.42186300     14.93967600
H          12.28858200     17.18048100     13.49958200
C          11.04555900     18.99164000     13.43144000
H          11.58875800     19.94632700     13.26894600
H          10.13650500     19.25036900     14.00418400
C          10.66128200     18.42574200     12.06211800
H          10.10893800     19.16972700     11.46194000
H          10.00078300     17.54537100     12.15316500
N          13.09409400     18.55754800     14.92173400
C          11.94523300     18.04790100     11.30532500
O          12.85306000     18.89659500     11.28299100
O          11.99763500     16.89243500     10.83590100
P          15.35516200     16.48430600     11.19714500
O          15.04392300     16.01704700     12.55660600
O          16.81246800     16.01424400     10.76369900
H          16.97210300     16.37417800      9.80653200
O          14.40624100     15.95162100     10.04881800
H          13.41457800     16.32094300     10.25286700
O          15.40511700     18.06364900     11.04059800
H          14.39978100     18.43064200     11.00594000
O          12.20795900     14.83722900     12.72838000
H          13.17249100     14.81526100     12.65441200
H          11.95251500     15.46472900     12.01743600
O          11.72026800     15.36687400     15.32965700
H          11.30226500     14.58716900     15.67859700
H          11.87930800     15.15551200     14.37807900
          39
 Energy =    -1277.97887790 a.u.  Frame:     8 Step:     8 Geom:     8
C          13.98668500     17.23671100     15.44045300
H          14.67976400     16.94205700     14.61573500
H          14.59968800     17.55273900     16.29452600
H          13.42585400     16.32666100     15.72468800
C          12.16647600     18.70851300     16.14131700
H          11.43157700     19.47247800     15.83983600
H          11.59736000     17.82186500     16.49600800
H          12.74785000     19.09762500     16.99034200
C          13.86913200     19.51800400     14.57311400
H          13.24098800     20.40577100     14.40973900
H          14.64127700     19.76089500     15.31794600
H          14.40546600     19.30957500     13.61136500
C          12.20616900     17.80015200     13.85094900
H          11.46583000     17.07487100     14.26678200
H          12.87521200     17.19665900     13.17976600
C          11.47013900     18.86838500     13.03909700
H          12.17228900     19.62660000     12.62690400
H          10.73226600     19.41008100     13.65423500
C          10.77311400     18.18032700     11.85896600
H          10.13690600     18.89271500     11.30520800
H          10.11866400     17.35377800     12.18472100
N          13.05533600     18.33063100     14.99143400
C          11.88115500     17.66422600     10.92661100
O          12.46862900     18.48598900     10.22037700
O          12.15851600     16.43726600     11.01588500
P          15.52657100     17.21918700     11.30550400
O          15.30448200     17.64940200     12.69483900
O          17.07446700     16.90301900     11.08967400
H          17.18836000     16.61106200     10.10429600
O          14.80515600     15.87478000     10.88370800
H          13.74883900     16.05456800     10.85015200
O          15.20616300     18.29616900     10.19026600
H          14.14588500     18.39165100     10.11313800
O          11.26051600     14.97349300     12.99906200
H          11.56113100     15.57297200     12.24123300
H          11.48732200     14.10309400     12.69682100
O          11.17621700     15.48498100     15.73200400
H          10.52521700     14.88850000     16.08683300
H          11.22335000     15.26257200     14.77648300
          39
 Energy =    -1277.97874770 a.u.  Frame:     9 Step:     9 Geom:     9
C          13.92598700     17.31906700     15.53090000
H          14.62584500     16.97715000     14.73678400
H          14.52489700     17.66583800     16.38302700
H          13.34512900     16.42782500     15.84855800
C          12.09393600     18.81718500     16.12869600
H          11.37225300     19.57551400     15.78401000
H          11.51159200     17.94299600     16.49226300
H          12.65238400     19.22882700     16.98263400
C          13.84292400     19.57169900     14.58230300
H          13.22071100     20.45242200     14.36435300
H          14.58930200     19.84425400     15.34270100
H          14.40759700     19.32947800     13.64554800
C          12.19871900     17.83805800     13.86793200
H          11.46360000     17.10559800     14.28040200
H          12.89314100     17.24166200     13.21627500
C          11.45804900     18.88295700     13.03013200
H          12.16249000     19.61438700     12.57492100
H          10.73945900     19.45857500     13.63702000
C          10.72681500     18.15766500     11.89405800
H          10.07974300     18.85403400     11.33231900
H          10.07668300     17.34708300     12.26549800
N          13.01428200     18.40098200     15.01747300
C          11.80697000     17.60192900     10.95189400
O          12.34581400     18.38493100     10.16820600
O          12.11447600     16.38871500     11.10970700
P          15.48038600     17.26594600     11.21301400
O          15.31129400     17.77387500     12.58139400
O          17.02390500     16.96688300     10.94400000
H          17.10012300     16.61990900      9.97325700
O          14.77501800     15.88104200     10.90628200
H          13.71649500     16.03253100     10.90628200
O          15.08824600     18.26086800     10.04508100
H          14.02514500     18.32571300     10.00392200
O          11.16093900     14.98789100     13.09988100
H          11.50739700     15.56374400     12.33874100
H          11.27506700     14.10284800     12.77885600
O          11.40066100     15.52543100     15.80030300
H          10.88875400     14.85940700     16.24661000
H          11.33379800     15.29511000     14.84477900
          39
 Energy =    -1277.97847130 a.u.  Frame:    10 Step:    10 Geom:    10
C          14.14315400     17.39545600     15.33284400
H          14.80962300     17.10411500     14.48636300
H          14.77904400     17.74579000     16.15554700
H          13.62208500     16.47181800     15.65855000
C          12.31412500     18.82725900     16.08653700
H          12.91878600     19.27618400     16.88865400
H          11.52604400     19.54179200     15.79900100
H          11.81445700     17.92588600     16.50382000
C          13.91800900     19.65079300     14.42379500
H          13.25641700     20.51499000     14.26623000
H          14.71109000     19.93524900     15.13126100
H          14.42238200     19.43355500     13.44727700
C          12.26941700     17.87184200     13.81734600
H          11.52013300     17.19624400     14.29129200
H          12.90800300     17.21219900     13.16969900
C          11.53818900     18.90389800     12.95532900
H          12.24994400     19.59521200     12.45110400
H          10.85375100     19.52503500     13.55657100
C          10.75823000     18.15380600     11.86830600
H          10.10140100     18.84169800     11.30752000
H          10.11136000     17.36411900     12.28684400
N          13.15953400     18.45019200     14.90350300
C          11.79811400     17.55485400     10.90694800
O          12.32113700     18.30880200     10.08418800
O          12.09410200     16.34198900     11.08669300
P          15.45623600     17.22911400     11.14344700
O          15.28092200     17.76236200     12.50314900
O          17.00194000     16.93303800     10.88585000
H          17.08326600     16.56870600      9.92164800
O          14.75632900     15.83677800     10.86241500
H          13.69576000     15.98212400     10.87292000
O          15.06166900     18.20357300      9.96003100
H          13.99709200     18.26029500      9.91596200
O          11.21876800     15.04983400     13.19456000
H          11.54661300     15.57518400     12.39177400
H          11.14981100     14.16322100     12.86516600
O          11.76648400     15.44703900     15.91276800
H          11.44006000     14.67498600     16.36254000
H          11.58653700     15.28100300     14.96256900
          39
 Energy =    -1277.98016080 a.u.  Frame:    11 Step:    11 Geom:    11
C          14.17435400     17.32534200     15.32114600
H          14.81871900     17.03025700     14.45898000
H          14.83265700     17.59327400     16.15779600
H          13.59679900     16.42459400     15.60227300
C          12.46382900     18.85657100     16.15589100
H          13.11199100     19.21025900     16.97160700
H          11.74029200     19.65184700     15.91385900
H          11.88574600     17.98520300     16.53664300
C          14.09808700     19.61861800     14.48646800
H          13.49450900     20.52934900     14.35306500
H          14.91061200     19.83609900     15.19620200
H          14.57444000     19.38823500     13.50230600
C          12.32399300     17.98964300     13.85192500
H          11.60128400     17.26156000     14.28773200
H          12.93703000     17.40332800     13.11419900
C          11.55488700     19.09746800     13.12826400
H          12.24439800     19.83127800     12.65565600
H          10.90101900     19.65966200     13.81515500
C          10.72260600     18.44843200     12.01525500
H          10.11530400     19.20229500     11.48433700
H          10.02401500     17.68979900     12.40314800
N          13.26135500     18.46235500     14.94722800
C          11.71498300     17.81564300     11.02459900
O          12.36066000     18.57837400     10.30041500
O          11.84711100     16.56673600     11.08680200
P          15.30542100     16.88705500     11.04137000
O          15.32233300     17.37610000     12.42721000
O          16.75064500     16.33835700     10.65169700
H          16.69504700     16.01056500      9.67243700
O          14.35207700     15.64963900     10.77331500
H          13.33507200     15.99201800     10.77667700
O          14.99678800     17.96524700      9.92546000
H          13.96091900     18.22737900      9.98984700
O          11.92200500     15.05995400     13.28465300
H          12.66768600     14.52953800     13.01144800
H          11.73016200     15.61299000     12.47574000
O          11.37933200     15.58913800     15.99293100
H          10.77884300     14.92057600     16.30841600
H          11.54301500     15.35525300     15.05787500
          39
 Energy =    -1277.97893460 a.u.  Frame:    12 Step:    12 Geom:    12
C          14.09692800     17.24127200     15.38901300
H          14.75921700     16.92962400     14.54533000
H          14.74042700     17.53307100     16.22912100
H          13.51673200     16.34661400     15.68324200
C          12.35675000     18.77765100     16.15057300
H          12.98116100     19.16319700     16.97028000
H          11.62716000     19.55450400     15.87001200
H          11.78413300     17.90787500     16.54135400
C          14.02845900     19.52140700     14.51645400
H          13.42564500     20.42882500     14.36546200
H          14.83042200     19.74369900     15.23601000
H          14.52757900     19.28692700     13.54105800
C          12.27655500     17.86391500     13.86441500
H          11.49626600     17.20881400     14.31519100
H          12.88567900     17.19499900     13.19816300
C          11.59727200     18.95517900     13.03373200
H          12.34245800     19.62568000     12.55031900
H          10.94222600     19.59052900     13.65268400
C          10.78391500     18.27531000     11.92513500
H          10.17300200     19.01196200     11.37457800
H          10.08909700     17.51577600     12.32153400
N          13.18833300     18.36572300     14.96977400
C          11.79564900     17.63698100     10.95893400
O          12.37810500     18.37866400     10.16512000
O          12.00995800     16.40360600     11.10826300
P          15.42524200     17.05489200     11.20646100
O          15.28448400     17.57406200     12.57584100
O          16.94685600     16.65535100     10.94583600
H          17.00477900     16.30405500      9.97508200
O          14.62884400     15.72109400     10.90008200
H          13.58105000     15.94382000     10.89984900
O          15.10247100     18.07661500     10.04153700
H          14.04421400     18.21137900      9.99954200
O          11.13311300     15.08346400     13.20745200
H          11.19527700     14.18841600     12.89797400
H          11.43272200     15.62734600     12.40909100
O          11.28756600     15.50887800     15.99213900
H          10.70731200     14.86407100     16.38335500
H          11.24296700     15.33478900     15.03003400
