          29
 G =       -0.408168 Gcorr = 0.137858 a.u. Nimag =   0 Frame:     1 Step:     1 Geom:     1
C           8.75699100     10.37023300     10.64482100
C          10.18323200     10.49833800     10.55467600
C          10.82459900     11.66916000     11.00610800
C          10.02830800     12.66380300     11.54309700
C           8.61641500     12.52520000     11.63797400
C           7.95934700     11.39049300     11.19405300
H          11.90854000     11.76956900     10.90509300
H          10.48319900     13.58801400     11.90095000
H           8.04401400     13.34673500     12.07055800
H           6.88075400     11.28832100     11.25901000
H           7.52463200      8.71967700      9.99780000
C           9.66076200      8.51954900      9.69791000
H           9.73189000      7.53883900      9.22784800
N           8.44606100      9.10600800     10.09748400
N          10.71304000      9.32585000      9.96748600
P          12.76906500      8.91239100      9.04656500
O          11.90216100      8.16463700      8.08739600
O          13.07487300      8.47069300     10.60951800
H          12.41755200      8.67594400     11.31178600
O          14.33923700      8.60084400      8.61289400
H          15.01902300      8.69323000      9.32293100
O          12.79638600     10.53302400      8.97660600
H          12.04341400     10.99572500      8.36716100
O          11.15566000     11.36871500      7.13730700
H          11.76253200     11.75030500      6.50336100
H          10.86067800     10.48146700      6.71778600
O          10.76738300      8.97545400      6.12264400
H          11.68853000      8.62419400      6.14138200
H          10.37174100      8.52360300      6.89781200
          29
 G =       -0.413351 Gcorr = 0.144616 a.u. Nimag =   0 Frame:     2 Step:     2 Geom:     2
C           8.79972400      9.83130900     10.47997200
C          10.03827300     10.02559400     11.17969600
C          10.32379000     11.25570600     11.77972800
C           9.37336000     12.25572500     11.67253300
C           8.15496000     12.05439100     10.98936800
C           7.84638300     10.84743400     10.38503100
H          11.26696000     11.40372900     12.30280600
H           9.56088200     13.22905400     12.12588000
H           7.44188600     12.87808800     10.94043300
H           6.90952900     10.69637100      9.85815400
H           8.15491000      8.09993100      9.40504500
C          10.07219500      7.97636100     10.38391000
H          10.37888900      6.97330800     10.10907400
N           8.83913600      8.51956900      9.99265000
N          10.79035000      8.84700300     11.10115200
P          12.98313200      8.76623400      8.44446000
O          11.55123500      8.61026900      8.15557700
O          13.36045300      9.25689300      9.90576100
H          12.57178900      9.01265600     10.56328300
O          13.74747900      7.38290800      8.25333700
H          14.74894500      7.54961700      8.43330300
O          13.83717800      9.74235300      7.53154200
H          13.29389000     10.62815000      7.38896300
O          12.29803900     12.06881300      6.91064000
H          12.21589100     12.08884900      5.95880600
H          11.40490900     11.82597600      7.22442700
O           9.85431800     11.04766600      7.76412700
H          10.27025900     10.17531600      7.85224900
H           9.69126900     11.33074600      8.66810500
          29
 G =       -0.413386 Gcorr = 0.144580 a.u. Nimag =   0 Frame:     3 Step:     3 Geom:     3
C           8.76437400      9.87744800     10.41593200
C           9.98355900     10.04830400     11.15465400
C          10.26035000     11.26400900     11.78728900
C           9.32047800     12.27316000     11.67306400
C           8.12085200     12.09475000     10.95133000
C           7.82133300     10.90248400     10.31420400
H          11.18906000     11.39433900     12.34011100
H           9.50166900     13.23582400     12.15109300
H           7.41531200     12.92467400     10.89861300
H           6.89903000     10.76906400      9.75772500
H           8.13884500      8.17300300      9.28794500
C          10.02592100      8.01506800     10.31919500
H          10.33326700      7.01534900     10.03320800
N           8.80844000      8.57533400      9.90382900
N          10.72919700      8.86572800     11.07409200
P          13.00537800      8.81799200      8.48848500
O          11.58198200      8.68040500      8.15201400
O          13.34166300      9.27049400      9.97186500
H          12.52769100      9.02533900     10.59766800
O          13.76530600      7.43359300      8.28800700
H          14.76162500      7.58786100      8.50390100
O          13.89409300      9.80818800      7.62513000
H          13.36204000     10.70133300      7.48675700
O          12.39324300     12.16066600      7.01145500
H          12.34376600     12.20490300      6.05819200
H          11.48822300     11.91757700      7.28870900
O           9.91567000     11.13849500      7.75965200
H          10.32357300     10.26184600      7.84224900
H           9.72407400     11.40278600      8.66364400
          29
 G =       -0.413375 Gcorr = 0.144591 a.u. Nimag =   0 Frame:     4 Step:     4 Geom:     4
C           8.80698400      9.85947700     10.53413600
C          10.05261000     10.01927400     11.23001400
C          10.35782100     11.22908700     11.86083600
C           9.41948400     12.24346300     11.78735300
C           8.19396700     12.07587600     11.10781000
C           7.86595300     10.88961400     10.47348200
H          11.30634000     11.35109900     12.38096100
H           9.62244500     13.20180300     12.26531000
H           7.49109200     12.90945400     11.08618800
H           6.92361600     10.76449100      9.94960000
H           8.13342000      8.16631600      9.41682300
C          10.05500300      7.99197000     10.37928200
H          10.34697400      6.99289000     10.07556800
N           8.82626000      8.56087300     10.01169000
N          10.78903500      8.83385100     11.11457500
P          12.95938700      8.80158600      8.43874000
O          11.52315100      8.67404700      8.15759600
O          13.35559500      9.24301400      9.91065200
H          12.56827000      8.99181400     10.56707200
O          13.70255700      7.41413200      8.20004900
H          14.70771800      7.56148900      8.37612300
O          13.81969100      9.79254000      7.54796100
H          13.28763900     10.68952500      7.43597100
O          12.30888100     12.15718900      7.00886700
H          12.22117700     12.20719100      6.05868700
H          11.41462400     11.91681600      7.32118100
O           9.85695700     11.14393700      7.84662300
H          10.26239400     10.26439100      7.90777100
H           9.70097200     11.40280000      8.75909800
          29
 G =       -0.408807 Gcorr = 0.137848 a.u. Nimag =   0 Frame:     5 Step:     5 Geom:     5
C           8.77047700     10.11854500     10.34606500
C          10.19948000     10.15851000     10.47468400
C          10.82065700     11.17494300     11.22701600
C          10.00131600     12.10924100     11.83337600
C           8.58605700     12.05733000     11.71014100
C           7.94974500     11.07429300     10.97153800
H          11.91180900     11.21126100     11.29427900
H          10.44144000     12.91466800     12.42291900
H           7.99431600     12.82235900     12.21492000
H           6.86891800     11.03721900     10.87481200
H           7.57535000      8.72356000      9.21126900
C           9.72004600      8.42578800      9.17583500
H           9.81531100      7.55927500      8.51849200
N           8.48754200      9.00766300      9.52222400
N          10.75814700      9.08861000      9.73755600
P          12.89375000      8.81237900      8.89815500
O          12.07268300      8.25512200      7.77830800
O          13.07648100      8.08382400     10.36841200
H          12.34291600      8.12389100     11.02426000
O          14.47903300      8.54051700      8.50992200
H          15.12047100      8.52871300      9.26202300
O          12.93732300     10.40605200      9.17477400
H          12.34799600     11.04270100      8.54482400
O          11.18479400     11.78675800      7.82589200
H          10.50179800     11.83881800      8.49837400
H          10.82815800     11.12885800      7.13766600
O          10.36261100      9.74196200      6.41339500
H          10.97280100      9.05455400      6.85669200
H          10.64858700      9.76260000      5.50219600
          29
 G =       -0.413363 Gcorr = 0.144604 a.u. Nimag =   0 Frame:     6 Step:     6 Geom:     6
C           9.38749700      9.34325800     11.25104900
C           9.00993500      9.77277300      9.93412800
C           8.30286500      8.91345300      9.08774300
C           7.98731400      7.65590200      9.57135800
C           8.35553600      7.24394100     10.86997000
C           9.05670700      8.07334900     11.72884500
H           8.02463700      9.23793100      8.08656500
H           7.43826100      6.95729600      8.94005700
H           8.07628200      6.24219100     11.19842000
H           9.34068300      7.75281800     12.72620600
H          10.54006000     10.40958000     12.70129200
C          10.12632500     11.43157900     10.84826500
H          10.63878000     12.37264100     11.01390600
N          10.08545900     10.41696500     11.81650500
N           9.48137800     11.07582800      9.73219600
P          12.58930000     11.21083400      8.25243800
O          12.51795800     10.78483700      9.65654900
O          11.21498000     11.27329800      7.46139000
H          10.42720700     11.39629000      8.15292400
O          13.20726000     12.67380000      8.14164600
H          13.26936400     12.91401800      7.14098900
O          13.51149700     10.38834800      7.25809300
H          13.35483000      9.36484900      7.42562900
O          13.30220500      7.59846600      7.84166300
H          14.18160900      7.30753800      8.07645400
H          12.81228200      7.59136000      8.68724300
O          12.02827500      7.90071600     10.29665100
H          12.20323300      8.85403800     10.24855500
H          11.07828900      7.82211500     10.17328100
          29
 G =       -0.412571 Gcorr = 0.144986 a.u. Nimag =   0 Frame:     7 Step:     7 Geom:     7
C           9.42061800      9.48955400     11.16126300
C           9.12307000      9.74153500      9.77901000
C           8.58902900      8.72879900      8.97681700
C           8.36431300      7.49691500      9.56597700
C           8.65292300      7.25927400     10.92674800
C           9.18074000      8.24383200     11.74516500
H           8.36536300      8.92177400      7.92934000
H           7.94823200      6.68262300      8.97292500
H           8.45024400      6.26953400     11.33810300
H           9.39857400      8.05803200     12.79230800
H          10.31739300     10.81802200     12.57561500
C           9.97197600     11.59733600     10.59574700
H          10.36725500     12.60163700     10.69877000
N           9.94582400     10.68611500     11.66214400
N           9.47235400     11.06314600      9.47618400
P          12.68895300     11.29154000      8.27329800
O          12.52225900     10.93648000      9.68734800
O          11.38970800     11.17423200      7.36479600
H          10.53420200     11.32538600      7.95834400
O          13.18386700     12.79674200      8.12852700
H          13.34544500     12.98131000      7.12721300
O          13.76127500     10.49711600      7.41737100
H          13.54411400      9.47112000      7.48926300
O          13.09502400      7.72734100      7.68446800
H          12.25858600      7.57742000      7.24733400
H          12.88796500      7.67947700      8.63769000
O          12.24419700      7.99765500     10.34467800
H          12.43697100      8.94747500     10.30809100
H          11.28954100      7.94859000     10.42547400
          29
 G =       -0.413340 Gcorr = 0.144626 a.u. Nimag =   0 Frame:     8 Step:     8 Geom:     8
C           9.47064000      9.41128600     11.23264000
C           9.05795900      9.79702000      9.91268500
C           8.33593700      8.90744000      9.11139100
C           8.04067000      7.66389400      9.64173900
C           8.44345700      7.29506200     10.94308000
C           9.16014100      8.15507000     11.75790600
H           8.03096100      9.19875900      8.10778800
H           7.48088500      6.94257700      9.04641900
H           8.17892500      6.30255100     11.30953500
H           9.47076700      7.86761300     12.75740400
H          10.65049900     10.52983700     12.62031900
C          10.18531100     11.49032800     10.74669800
H          10.69550400     12.43911500     10.87001700
N          10.17522800     10.50624400     11.74676300
N           9.51557700     11.09582300      9.65858900
P          12.58292600     11.21554600      8.09403400
O          12.55158900     10.83334600      9.51216000
O          11.18777000     11.24394300      7.33827500
H          10.41709700     11.37787900      8.04688400
O          13.18653400     12.67839900      7.92088500
H          13.21917600     12.88758300      6.91175900
O          13.48503400     10.36839800      7.10198300
H          13.33998600      9.34961700      7.30500400
O          13.31274200      7.59699600      7.77698200
H          14.20032200      7.31980200      7.99731700
H          12.84539200      7.61298300      8.63513500
O          12.10175200      7.96645800     10.25493400
H          12.26775900      8.91906200     10.17276800
H          11.14947800      7.87737800     10.15891800
          29
 G =       -0.413338 Gcorr = 0.144628 a.u. Nimag =   0 Frame:     9 Step:     9 Geom:     9
C           9.43217900      9.38705900     11.14662200
C           9.10443200      9.76627700      9.80117200
C           8.46600500      8.86032400      8.94887200
C           8.16758600      7.60735700      9.45472100
C           8.48615400      7.24494100     10.78093300
C           9.11904200      8.12111200     11.64637300
H           8.22579300      9.14685900      7.92650400
H           7.67167400      6.87332700      8.81961100
H           8.22322300      6.24430500     11.12593300
H           9.36504000      7.83859700     12.66508600
H          10.47947200     10.53199800     12.61672900
C          10.12349100     11.48610300     10.71624100
H          10.59811900     12.44758100     10.87690600
N          10.06861200     10.49861700     11.71143300
N           9.54380400     11.07774200      9.58244700
P          12.71329300     11.26523400      8.24689400
O          12.58752200     10.87896200      9.65863800
O          11.37720700     11.25911600      7.39054000
H          10.55407500     11.38156400      8.03948800
O          13.29051900     12.74342000      8.11974800
H          13.39901400     12.95345200      7.11621600
O          13.70699300     10.44363200      7.32308100
H          13.57243300      9.42102200      7.51307400
O          13.55444100      7.66737000      7.98045800
H          14.43006100      7.41481500      8.26778300
H          13.02312100      7.66970600      8.80088800
O          12.15680700      7.99851400     10.36257900
H          12.30321000      8.95564100     10.29514400
H          11.21669600      7.88536500     10.19589400
          29
 G =       -0.412561 Gcorr = 0.144996 a.u. Nimag =   0 Frame:    10 Step:    10 Geom:    10
C           9.52144400      9.41328500     11.23488600
C           9.20370000      9.71763400      9.86775200
C           8.63724700      8.74240000      9.04162500
C           8.40090900      7.49519000      9.59272400
C           8.70948700      7.20609300     10.93909800
C           9.26963000      8.15264700     11.78051600
H           8.39843800      8.97504900      8.00560800
H           7.95971300      6.70903600      8.98017600
H           8.49625600      6.20654700     11.32033800
H           9.50279900      7.92730700     12.81654000
H          10.46705900     10.67676700     12.67675000
C          10.10050800     11.52931400     10.73108900
H          10.51573800     12.52244300     10.86070700
N          10.07710300     10.58266800     11.76624600
N           9.57126300     11.04253600      9.60353100
P          12.76733200     11.26132700      8.34599800
O          12.62229000     10.86384800      9.75113100
O          11.44892400     11.19490800      7.46027100
H          10.60785800     11.34173800      8.07536600
O          13.28553200     12.76191300      8.23933500
H          13.43210000     12.97546400      7.24148200
O          13.80874600     10.47692500      7.44371600
H          13.57598800      9.45298800      7.48783300
O          13.10148200      7.71209300      7.63758400
H          12.25431400      7.58914200      7.21287300
H          12.91263000      7.63654200      8.59271900
O          12.30927800      7.91111100     10.32282400
H          11.35564100      7.87459200     10.42046800
H          12.51660100      8.85850700     10.31082400
          29
 G =       -0.413343 Gcorr = 0.144623 a.u. Nimag =   0 Frame:    11 Step:    11 Geom:    11
C           9.45824700      9.43786000     11.32509300
C           9.05784400      9.90435400     10.02762300
C           8.25387600      9.10610700      9.20837700
C           7.86718400      7.87141000      9.69912900
C           8.25876800      7.42326000     10.97881500
C           9.05514500      8.19202300     11.81066300
H           7.95794500      9.45814400      8.22166600
H           7.24183900      7.21999100      9.08866200
H           7.92042200      6.44225200     11.31420800
H           9.35667600      7.84362200     12.79341800
H          10.74589900     10.40561600     12.73017100
C          10.33157400     11.46924300     10.90084300
H          10.91899700     12.36858900     11.04850300
N          10.25723900     10.45265800     11.86500000
N           9.61526300     11.17068700      9.81183700
P          12.65759900     11.09663400      8.19647000
O          12.61698700     10.66672100      9.60062500
O          11.25805500     11.26644800      7.46794200
H          10.51205200     11.43697000      8.19496000
O          13.37662900     12.51077300      8.06396600
H          13.41094600     12.75341000      7.06247100
O          13.47146400     10.21575100      7.15853300
H          13.24807200      9.20527100      7.32941900
O          13.08686700      7.44464100      7.74047900
H          13.95223600      7.08889400      7.93483400
H          12.63551300      7.46715400      8.60702300
O          11.94758700      7.82044700     10.25085900
H          10.98987500      7.81212800     10.16899500
H          12.18921500      8.75895800     10.19942400
          29
 G =       -0.400738 Gcorr = 0.138290 a.u. Nimag =   0 Frame:    12 Step:    12 Geom:    12
C          10.52800700      9.23441200     11.75443600
C           9.77356100      9.37001500     10.53720700
C           9.12593700     10.58452100     10.23589200
C           9.24823700     11.61823800     11.14695300
C           9.99255700     11.47408800     12.34905600
C          10.63874000     10.29366800     12.67390500
H           8.56707700     10.68815300      9.30445300
H           8.76330600     12.57579600     10.95059100
H          10.05028400     12.32728900     13.02700000
H          11.20012200     10.18177900     13.59653800
H          11.64768900      7.52170300     12.43654600
C          10.62829300      7.33522800     10.52531000
H          10.91450800      6.33097300     10.23323300
N          11.06182200      7.93085600     11.73203200
N           9.85385500      8.16740000      9.80519100
P          11.52860000      9.45939700      7.39603100
O          11.05172400     10.82196600      7.74533700
O          10.45257000      8.28061800      7.05919500
H           9.80397600      8.01042900      7.79887000
O          12.34945700      9.39751000      5.97788100
H          12.34415500      8.52226600      5.50362500
O          12.51397900      8.83303300      8.50530400
H          12.92648700      9.53743500      9.24482400
O          13.16484300     10.63112800     10.24175800
H          12.50916500     10.49506600     10.93256200
H          12.85855200     11.50698300      9.78072600
O          11.81873600     12.57603000      9.19921500
H          10.95812100     12.10028500      9.25163900
H          12.00565800     12.55375100      8.23470100
          29
 G =       -0.408150 Gcorr = 0.137875 a.u. Nimag =   0 Frame:    13 Step:    14 Geom:    14
C           9.19318900      8.77792100     11.02923200
C           9.58589600      9.38670800      9.79076000
C           8.93620600      9.04220100      8.58859600
C           7.91156800      8.11673500      8.66201800
C           7.52171100      7.52525100      9.89481600
C           8.14833000      7.83797400     11.08894100
H           9.26307100      9.48883400      7.64578300
H           7.38462100      7.81870000      7.75501200
H           6.70655000      6.80060300      9.88584300
H           7.85600800      7.38022600     12.02863500
H          10.03735800      9.08803600     12.99212200
C          10.90873000     10.22118000     11.36437900
H          11.68766300     10.78729100     11.87487300
N          10.04396700      9.32304000     12.01593700
N          10.65057000     10.28429400     10.03791400
P          12.13928700     11.26884400      8.60225500
O          13.04779900     10.96795300      9.74886200
O          10.95077100     12.41725400      8.59462300
H          10.08068800     12.22129200      9.00935000
O          13.03044400     12.13181700      7.50137900
H          12.52526900     12.71886800      6.88901900
O          11.65504000     10.05018900      7.64711800
H          11.86023200      9.05761900      8.00122200
O          12.62376900      7.79911300      8.52281100
H          13.21835400      7.56051600      7.81194800
H          13.23455600      8.12780100      9.27737100
O          14.26690800      8.94475400     10.22435800
H          13.62166300      9.40405600     10.80251600
H          14.59979900      9.69094700      9.67232300
          29
 G =       -0.413340 Gcorr = 0.144626 a.u. Nimag =   0 Frame:    14 Step:    15 Geom:    15
C           9.56505000      9.11292100     11.29761900
C           9.09314400      9.57414400     10.02247700
C           8.42772000      8.69938600      9.15834800
C           8.24592600      7.39513800      9.58350800
C           8.70620300      6.95146900     10.84169300
C           9.36897500      7.79529200     11.71686600
H           8.07785600      9.04878200      8.18848900
H           7.73314500      6.68334600      8.93661000
H           8.53107100      5.91296400     11.12484500
H           9.72405800      7.45050500     12.68286800
H          10.68208100     10.20268700     12.75829100
C          10.09786500     11.27768000     10.98281200
H          10.53190400     12.25150400     11.18016500
N          10.18963800     10.21471000     11.89403200
N           9.43815100     10.92325600      9.87495700
P          12.45267300     11.42122900      8.28188100
O          12.47958500     10.91480800      9.66063300
O          11.04346900     11.41185900      7.55223000
H          10.28014400     11.41467800      8.28101800
O          12.94356700     12.93473700      8.23077000
H          12.93888600     13.23355900      7.24394300
O          13.39361500     10.73511900      7.20505800
H          13.32686800      9.69445000      7.31608200
O          13.43849900      7.90914500      7.62558200
H          14.34950500      7.67795200      7.79827200
H          12.99767400      7.81511100      8.49282600
O          12.27947000      7.96760500     10.15327500
H          11.33422400      7.81206300     10.07201200
H          12.36904200      8.93391100     10.15285000
          29
 G =       -0.413358 Gcorr = 0.144608 a.u. Nimag =   0 Frame:    15 Step:    16 Geom:    16
C           9.65371800      9.23442400     11.39298400
C           9.08534700      9.72172900     10.16787800
C           8.27870500      8.89039200      9.38498400
C           8.05555700      7.60266900      9.83978900
C           8.61177300      7.13361700     11.04905100
C           9.41490200      7.93428500     11.84349800
H           7.85535400      9.25904600      8.45225600
H           7.43341400      6.92450200      9.25575800
H           8.39833700      6.11009300     11.35921600
H           9.84333700      7.56985400     12.77179800
H          10.98305900     10.25251200     12.72161400
C          10.29384500     11.35751500     11.00305600
H          10.80965800     12.30064800     11.14487700
N          10.40796300     10.29389100     11.91098800
N           9.50215400     11.04412100      9.97197700
P          12.35874600     11.34240700      8.06976500
O          12.50015700     10.84301200      9.44405400
O          10.88300700     11.41138200      7.49033800
H          10.20200700     11.47373400      8.29451100
O          12.92892200     12.82394200      7.95028400
H          12.83931600     13.11680100      6.96573200
O          13.14051200     10.59510100      6.90946100
H          13.02437800      9.56105200      7.03983600
O          13.06108100      7.77403600      7.36131400
H          13.96998400      7.49256600      7.44923400
H          12.70063100      7.71128200      8.26748500
O          12.15675900      7.91729800      9.98873300
H          11.20032600      7.82226100     10.00090700
H          12.30706700      8.87584200      9.96863600
          29
 G =       -0.412548 Gcorr = 0.145009 a.u. Nimag =   0 Frame:    16 Step:    17 Geom:    17
C           9.77819300      9.22167300     11.34808700
C           9.25006700      9.58000100     10.06145900
C           8.62776200      8.61697900      9.26166300
C           8.54552500      7.32803400      9.75867500
C           9.06054100      6.98547500     11.02708900
C           9.68033900      7.91873400     11.84111700
H           8.22921000      8.89067600      8.28659700
H           8.06701900      6.54972200      9.16439600
H           8.96219500      5.95435900     11.36918100
H          10.07237100      7.65201700     12.81768500
H          10.84751100     10.46256400     12.72149800
C          10.15637100     11.39600900     10.90556000
H          10.52823400     12.40558000     11.03945700
N          10.33654200     10.39374100     11.87054700
N           9.49908500     10.93894700      9.83431600
P          12.46585900     11.43000400      8.16103100
O          12.54319400     10.94299900      9.54319600
O          11.04006300     11.33438900      7.46437000
H          10.28858400     11.38800400      8.19861600
O          12.88286300     12.96346100      8.08300200
H          12.87308900     13.24331700      7.09068600
O          13.40840900     10.76539700      7.07312900
H          13.24161900      9.72754700      7.08369200
O          12.89128200      7.95469800      7.18445500
H          12.00042400      7.80146500      6.87478500
H          12.84537500      7.81430500      8.14993900
O          12.48228400      7.94944800      9.95866600
H          11.55695600      7.84246500     10.18802300
H          12.62904600      8.90800100      9.97909100
          29
 G =       -0.411802 Gcorr = 0.144221 a.u. Nimag =   0 Frame:    17 Step:    18 Geom:    18
C           9.10927700      9.74019500     11.40107100
C           9.27294400      9.62406800      9.98116200
C           9.56420300      8.38457900      9.40264400
C           9.67479100      7.29571100     10.24961700
C           9.49071000      7.41514600     11.64404500
C           9.20720400      8.63069100     12.24342500
H           9.71660800      8.29831800      8.32902500
H           9.93268400      6.31945300      9.83565600
H           9.58472100      6.52079600     12.25940200
H           9.07657100      8.72130900     13.31573100
H           8.77639200     11.51489600     12.54468300
C           8.92221800     11.75189300     10.40800100
H           8.79635600     12.81979200     10.30597000
N           8.87269700     11.09890700     11.64839700
N           9.13587400     10.89512900      9.40652900
P          12.47895400     11.09216800      8.55584000
O          12.26560400     10.17192800      9.67500600
O          11.26862000     11.29936900      7.54853900
H          10.35770000     11.22028400      8.07360500
O          12.86484600     12.54594800      9.07783500
H          13.09512600     13.12518000      8.25730400
O          13.66882800     10.77090900      7.54943100
H          13.51784600      9.80984900      7.16381800
O          13.16240900      8.08349000      6.62034500
H          12.35723500      8.10831900      6.10493800
H          12.89995200      7.67098200      7.46507100
O          12.30681800      7.21725900      9.15144000
H          13.06336500      6.95172300      9.67377100
H          12.12946000      8.13172200      9.43771300
          29
 G =       -0.409903 Gcorr = 0.142961 a.u. Nimag =   0 Frame:    18 Step:    19 Geom:    19
C           8.21113900      9.81581400     11.44303400
C           9.48416000      9.78061200     10.78164300
C          10.42302300      8.79610800     11.11035300
C          10.06786700      7.87565300     12.07948700
C           8.81159700      7.91619200     12.72343400
C           7.86568000      8.88014800     12.42145900
H          11.39808800      8.76969900     10.61705300
H          10.77278400      7.09360500     12.36220100
H           8.58920300      7.16291500     13.48008800
H           6.90249800      8.91057200     12.91843100
H           6.60756700     11.19826700     11.14372800
C           8.37598400     11.48504300      9.94121200
H           8.09750900     12.35250200      9.35972100
N           7.52432600     10.90606000     10.89577800
N           9.53615800     10.83295700      9.86028400
P          13.08439700     10.87240300      8.45806100
O          13.16371500      9.50253300      8.98544900
O          11.65637900     11.38059200      8.02335200
H          10.99065300     11.20455900      8.83974100
O          13.55313400     12.01222600      9.47277200
H          14.52638100     11.80958500      9.73420200
O          13.98521000     11.16896800      7.18369200
H          13.84096200     10.39446500      6.49495000
O          13.76569600      8.90554200      5.39231100
H          14.62477900      8.49539300      5.32238500
H          13.24338400      8.28418000      5.93690900
O          12.41231200      7.29116800      7.23041600
H          11.47131700      7.46044200      7.17093500
H          12.71411100      7.89180900      7.93693100
          29
 G =       -0.397097 Gcorr = 0.134791 a.u. Nimag =   0 Frame:    19 Step:    20 Geom:    20
C           9.43035000      9.80805200     11.24022900
C           9.93824800      8.54946000     10.75600800
C           9.06461300      7.62404800     10.15376700
C           7.73060700      7.97545700     10.04170000
C           7.24125000      9.22008800     10.51924500
C           8.07171600     10.14865700     11.12404600
H           9.44540900      6.66773700      9.80033800
H           7.02531500      7.28481700      9.57946900
H           6.17943100      9.43874900     10.40355300
H           7.69713900     11.09699500     11.49703700
H          10.54297600     11.42154400     12.14383500
C          11.66364600      9.64754300     11.58100800
H          12.66730400      9.95010700     11.86819100
N          10.54160900     10.48736200     11.77662900
N          11.32885200      8.48645200     10.98502700
P          11.97025600     11.29471400      8.41448700
O          12.65402000     10.86099600      9.65843100
O          10.60255800     10.43669200      8.08353400
H          10.03937100     10.10800000      8.82739800
O          11.45732500     12.84716000      8.44844300
H          11.31449500     13.28566400      7.56265900
O          12.72579400     11.17506500      7.01866500
H          13.14517400     10.16361900      6.74459300
O          13.39392400      8.73651300      6.73378000
H          12.52171100      8.32580600      6.71801300
H          13.77826000      8.50458500      7.66221700
O          13.85115400      8.44100200      9.26885600
H          13.12207500      7.96279100      9.70086500
H          13.79543100      9.36033800      9.62798700
          29
 G =       -0.411863 Gcorr = 0.144159 a.u. Nimag =   0 Frame:    20 Step:    21 Geom:    21
C           9.12870900      9.72615200     11.32947000
C           9.31824500     10.05618000      9.94689300
C           9.20480200      9.06889500      8.96286100
C           8.89704600      7.78561800      9.37957600
C           8.69062500      7.47405000     10.74083900
C           8.80224600      8.43054500     11.73571600
H           9.37574700      9.31046000      7.91611300
H           8.83249700      6.98397700      8.64192000
H           8.44505800      6.44645600     11.00750800
H           8.65341700      8.18622100     12.78131600
H           9.35390500     11.00353000     13.02823400
C           9.68400400     11.89514600     11.09459200
H           9.93141700     12.90967200     11.37058200
N           9.35178900     10.91324900     12.03955600
N           9.64855100     11.41486500      9.84931100
P          12.90293400     10.75682000      8.89271600
O          12.33561000      9.64088800      9.65269600
O          11.88639500     11.67803200      8.09255200
H          10.97886000     11.74374100      8.62537300
O          13.72365100     11.73569100      9.84309500
H          14.17977300     12.44354300      9.24922500
O          13.96878100     10.41594000      7.76146200
H          13.52560800      9.74864000      7.08806100
O          12.64103200      8.52840400      6.02358300
H          11.92010400      8.99228800      5.59970500
H          12.20986400      7.96901900      6.69720400
O          11.40707000      7.20153100      8.17007500
H          12.00128100      6.54018300      8.52391800
H          11.53099500      7.97028100      8.75586200
