          47
 Energy =  -1979.25519920 a.u.  #Cluster:    1
C           8.17534500     10.46676900     11.16925500
C           9.07256300     10.40825200     12.23516100
C           9.83791500      9.26603400     12.44300400
C           9.70770000      8.18937900     11.55271300
C           8.82069200      8.29422100     10.48062000
H          10.54225600      9.21238600     13.28080500
H           7.55567100     11.36547200     10.99110400
H           9.18483800     11.28728700     12.87931400
H           8.75034400      7.49968400      9.72822400
C          10.52816200      6.96032400     11.69328300
H           9.92286100      6.05005800     11.77148000
H          11.20099600      6.83992000     10.81827600
H          11.19782600      6.99419900     12.56728700
N           8.04691900      9.40855600     10.31922000
C           7.07875700      9.49502000      9.19841200
H           6.21538700      8.83478000      9.44372300
H           6.67378300     10.54332200      9.14610400
C           7.65419000      9.11390700      7.82001900
H           8.24635500      8.17472900      7.88233100
H           6.79724400      8.86725600      7.15453100
C           8.48381700     10.21385200      7.16529000
H           7.88294700     11.13381700      7.02434000
H           8.79616500      9.90998500      6.14922400
S           9.94044200     10.61046600      8.14797500
O          10.93147700     11.29546900      7.32109400
O          10.36010000      9.30226200      8.72160600
O           9.36153400     11.50691400      9.21148500
P          13.06715000      9.93405200     11.01217000
O          11.95601800     10.56746900     11.73579800
O          14.06462200     10.85555400     10.20384100
H          13.53584500     11.62321700      9.70219300
O          14.05077800      9.21134100     12.04362500
H          14.84823200      8.84377400     11.50298000
O          12.69942700      8.73946900     10.04213300
H          11.80386800      8.96269300      9.51951000
O          12.71764000     12.87933100      8.87882500
H          12.04525800     13.16590500      9.51046900
H          12.20992700     12.42041300      8.17834500
O           6.99193000     12.91230100      9.49760300
H           7.19313600     13.32850300     10.34344800
H           7.85363400     12.54190800      9.23185000
O          10.58533400     13.09786500     10.95596100
H          11.09302800     12.41998300     11.42137300
H          10.12283600     12.56715100     10.25020900
O           8.15789000     13.52611700     12.07271900
H           8.13764800     14.41870400     12.40106500
H           9.06952400     13.40995300     11.71002800
          47
 Energy =  -1979.25464980 a.u.  #Cluster:    2
C           8.13937200     10.32131400     11.04087000
C           8.98721700     10.14246100     12.13271500
C           9.73435500      8.97513700     12.25247500
C           9.63968700      8.00266500     11.24598100
C           8.80244800      8.22992700     10.15221400
H          10.39682300      8.82357500     13.11209800
H           7.53201700     11.23536700     10.93611900
H           9.07940800     10.94928000     12.86703600
H           8.76271100      7.51952200      9.31752000
C          10.45211000      6.76100600     11.28659400
H           9.84504800      5.85077000     11.22402500
H          11.17138700      6.74158600     10.44050300
H          11.07338300      6.68891600     12.19317600
N           8.04321800      9.36229000     10.07609500
C           7.12899100      9.58727900      8.92885400
H           6.22907600      8.94902700      9.08195500
H           6.77105200     10.65731100      8.95270000
C           7.74613500      9.30156400      7.54569300
H           8.31292300      8.34523900      7.55147600
H           6.90867500      9.13313000      6.83251400
C           8.62599100     10.42751400      7.01082500
H           8.04584700     11.36614800      6.90456700
H           8.98521600     10.18858100      5.99324000
S          10.03217500     10.72808500      8.09435700
O          11.06006100     11.48887800      7.38821800
O          10.42858600      9.37280400      8.56584600
O           9.39253700     11.52143900      9.20549400
P          12.98762900      9.82611800     11.06560600
O          11.82589800     10.37917700     11.77571100
O          14.01572500     10.82661400     10.40334400
H          13.50552800     11.63333900      9.94547700
O          13.92072100      9.02366100     12.08499000
H          14.75348500      8.71339800     11.56186100
O          12.69548300      8.71914900      9.97345900
H          11.82988100      8.97913100      9.41891100
O          12.71882700     12.95186800      9.19299900
H          12.00584700     13.17178600      9.80680100
H          12.26162500     12.55313400      8.42451900
O           6.99817100     12.89554300      9.28820900
H           7.08849600     13.25048700     10.17950000
H           7.89025200     12.53745700      9.11923600
O          10.46573500     12.97036200     11.15353000
H          10.95064300     12.26287100     11.59693500
H          10.06514500     12.49430500     10.37467800
O           7.92025100     13.35790400     12.03078500
H           7.87113200     14.23450800     12.39705500
H           8.86309900     13.24839500     11.76325700
          47
 Energy =  -1979.25227620 a.u.  #Cluster:    3
C           7.95768300      9.81934200     10.42813200
C           8.51390500      9.60655100     11.68852500
C           9.45090200      8.59633000     11.87665000
C           9.83784200      7.81490300     10.77749900
C           9.28230900      8.07611500      9.52377900
H           9.89048400      8.42185500     12.86555100
H           7.20542300     10.60831800     10.26041500
H           8.22086000     10.26970900     12.51275400
H           9.61898700      7.53021300      8.63478600
C          10.86202300      6.74801000     10.90371000
H          10.50015900      5.76786900     10.57288200
H          11.75851800      6.99488900     10.29706100
H          11.23545500      6.63724800     11.93437600
N           8.33593200      9.04823600      9.36840200
C           7.72634500      9.30934100      8.04091800
H           6.99103100      8.49651000      7.83907300
H           7.14058900     10.26793700      8.09381100
C           8.73265600      9.40511600      6.87715200
H           9.48530400      8.58813500      6.93313300
H           8.17652900      9.21479700      5.93258500
C           9.43462500     10.75537900      6.77185600
H           8.70522600     11.57150900      6.61395200
H          10.09623700     10.77817000      5.88604100
S          10.40462400     11.10458500      8.25092200
O          11.36642900     12.16703700      7.97255300
O          10.96556700      9.78429700      8.63593800
O           9.33370200     11.54724000      9.21937300
P          12.70027500     10.15040000     11.78538400
O          11.31211100     10.36411200     12.21441600
O          13.63444000     11.40870100     11.58298400
H          13.10148000     12.19948000     11.12537800
O          13.49935900      9.32405100     12.89477300
H          14.48196400      9.26465600     12.58717500
O          12.91917200      9.24437900     10.50525100
H          12.17850700      9.46319300      9.78340900
O          12.24063800     13.48095500     10.37375600
H          12.06439700     13.17352900      9.46370900
H          11.37516600     13.45978100     10.80631000
O           6.89829000     12.35966900     11.88876300
H           6.70750200     12.55848500     10.96771500
H           7.83033700     12.61745900     11.98629500
O           9.66289200     12.78154800     11.61488200
H          10.15781300     12.10019000     12.08621900
H           9.52238100     12.37323300     10.72949200
O           6.89730100     12.64711200      8.95859000
H           7.82215100     12.31025600      9.03553600
H           6.98449200     13.57919300      8.78815400
          47
 Energy =  -1979.24829150 a.u.  #Cluster:    4
C           8.05098400     10.26429400     11.01509800
C           8.80501200     10.01919500     12.16013200
C           9.55673300      8.85152300     12.26388200
C           9.57304700      7.95806500     11.18373100
C           8.81360900      8.24425000     10.04694700
H          10.13881300      8.64224700     13.16826600
H           7.45592200     11.18575800     10.90833000
H           8.82849300     10.77531900     12.95224100
H           8.84964600      7.59111900      9.16686000
C          10.43092700      6.74687900     11.19307900
H          10.91548600      6.57567500     12.16656100
H           9.88985500      5.83293800     10.92358900
H          11.26474700      6.86529600     10.46790600
N           8.03749600      9.36535100      9.98988900
C           7.17942600      9.63185900      8.80966300
H           6.29641900      8.95585200      8.87275400
H           6.77703700     10.68555200      8.87797500
C           7.88205300      9.45484700      7.45066200
H           8.49450400      8.52770400      7.43474500
H           7.09409300      9.29111300      6.68213900
C           8.73099100     10.65120400      7.03511500
H           8.10950000     11.56613900      6.95485200
H           9.15211100     10.49539500      6.02521100
S          10.07255400     10.95660800      8.20105500
O          11.16428700     11.62512300      7.48746800
O          10.43316200      9.59491600      8.70853000
O           9.39506500     11.77083200      9.25260600
P          12.78299900      9.98861100     11.37870200
O          11.53074300     10.36964300     12.03815300
O          13.76724300     11.16892300     11.01042600
H          13.73161200     11.37179700      9.97488400
O          13.64906200      9.10117400     12.38534200
H          14.56714800      8.93342800     11.95675600
O          12.68614700      9.06153300     10.09768200
H          11.77147300      9.23949900      9.58030900
O          13.79605400     11.71857100      8.28139600
H          14.03505100     10.89902900      7.85027200
H          12.86456000     11.86213700      7.98488400
O           6.83430700     12.83480400      9.27776600
H           6.78426200     13.12971000     10.19418100
H           7.78273600     12.63176800      9.16719400
O           9.89148000     12.89993900     11.68456900
H          10.50338000     12.23984300     12.02371100
H           9.79227100     12.62724200     10.74328500
O           7.24574300     13.23526500     12.14222600
H           7.14163500     14.11589700     12.48718600
H           8.22014100     13.11615500     12.05180600
          47
 Energy =  -1979.24248480 a.u.  #Cluster:    5
C           8.31137700     10.60604400     10.52278700
C           8.91902700     10.61103500     11.78373500
C           9.49727800      9.45450000     12.28441100
C           9.48920200      8.29033600     11.49447500
C           8.85964200      8.31429600     10.25453700
H           9.97439500      9.45092000     13.26997400
H           7.88477600     11.52570800     10.08013700
H           8.95461300     11.54419300     12.35462300
H           8.86746200      7.43859600      9.59800500
C          10.19957600      7.06277900     11.93290800
H          10.46925000      7.08542400     12.99880200
H           9.63131600      6.14416800     11.75045500
H          11.16269800      6.97087100     11.38493100
N           8.25240600      9.45359800      9.80014900
C           7.54707500      9.45437100      8.49531100
H           6.60551600      8.87090500      8.62069700
H           7.24280800     10.50579600      8.25357500
C           8.36983200      8.88450700      7.32119800
H           8.92597000      7.97297900      7.63410300
H           7.65786800      8.53358000      6.54361200
C           9.33449800      9.88748400      6.69480600
H           8.79642200     10.75203300      6.26823600
H           9.87597100      9.42721300      5.84889400
S          10.52531500     10.47783500      7.91609400
O          11.64154100     11.14491400      7.24469300
O          10.86549300      9.25062100      8.68719000
O           9.69427100     11.42497100      8.73067700
P          12.86185300     10.17395000     11.49052000
O          11.60721000     10.83057300     11.88319300
O          13.98573900     11.04821600     10.80062300
H          13.55537800     11.76499900     10.15773800
O          13.62134800      9.62536100     12.78536600
H          14.51915200      9.22823900     12.47034500
O          12.73647900      8.86104800     10.62043500
H          12.01931400      9.01440700      9.84567800
O          12.89335200     12.94195100      9.06912900
H          12.60186000     12.40905700      8.30016000
H          12.07252700     13.22298500      9.48956700
O           6.05211900     11.40601400     11.66329300
H           6.59875500     12.21036500     11.65859800
H           5.41005600     11.54500600     12.35203300
O          10.27894100     13.20064400     10.59934100
H          10.74529500     12.58522000     11.18092300
H          10.03899300     12.61987100      9.82207000
O           7.81039500     13.63016300     11.56094100
H           7.59533000     14.52402600     11.32540600
H           8.74032900     13.49825300     11.23565000
          47
 Energy =  -1979.24072350 a.u.  #Cluster:    6
C           8.39955100     10.61068400     10.67435100
C           9.00265300     10.45042200     11.92450800
C           9.55631200      9.22679200     12.27573700
C           9.51561200      8.17003100     11.35159200
C           8.85171100      8.34950400     10.13952200
H          10.05127300      9.09858600     13.24344200
H           8.04727800     11.59592500     10.31229200
H           9.07112400     11.30936900     12.60043400
H           8.81404600      7.55298400      9.38980100
C          10.23086400      6.89641900     11.61490500
H          11.21625800      6.91304500     11.09817000
H          10.45579400      6.74605000     12.68020300
H           9.69298000      6.01135100     11.25810800
N           8.27235200      9.54797300      9.83468200
C           7.49502700      9.71512100      8.58329700
H           6.53868400      9.15442500      8.70509200
H           7.19871400     10.79406200      8.48646100
C           8.23533500      9.26103700      7.31150900
H           8.78541400      8.31142800      7.49257300
H           7.47387500      9.01147500      6.54178700
C           9.18937900     10.30854600      6.74560900
H           8.64487300     11.21358000      6.42320100
H           9.69244100      9.92513700      5.83969300
S          10.43795800     10.78041100      7.96300800
O          11.58521100     11.36248000      7.25459500
O          10.72735500      9.50208400      8.67904100
O           9.70034700     11.74090200      8.83003500
P          12.84425700     10.14648800     11.48194800
O          11.59969900     10.80061500     11.89800100
O          14.05810400     11.06085300     11.04074900
H          13.86693700     11.50892100     10.10894200
O          13.48168600      9.38131200     12.73489000
H          14.40183600      9.02205500     12.44671800
O          12.73708000      8.99346900     10.40727000
H          11.93405000      9.19217100      9.73049400
O          13.68012800     12.44092500      8.64898900
H          13.22450300     13.25081600      8.86989500
H          13.05125500     11.98457700      8.03836100
O           5.73297700     11.09481600     10.71050700
H           6.20476300     11.82351100     11.15299400
H           4.87462400     11.07153200     11.12270500
O           9.89603000     13.23144000     11.08266400
H          10.53627700     12.65112000     11.51087000
H           9.85511700     12.84621300     10.17116900
O           7.32763100     13.16154600     11.98668600
H           7.06651500     14.07007900     12.08967000
H           8.27413500     13.20774000     11.69285500
          47
 Energy =  -1979.24053090 a.u.  #Cluster:    7
C           8.00682000     10.26107200     10.87795400
C           8.74774500     10.12911700     12.05250100
C           9.51976500      8.99318800     12.26654800
C           9.55140000      7.99604700     11.28003600
C           8.80939500      8.17083700     10.11044200
H          10.11870900      8.88877900     13.17715600
H           7.39611400     11.15931800     10.68661000
H           8.74562200     10.95583500     12.77298500
H           8.86566700      7.44140800      9.29432400
C          10.41019800      6.79287800     11.42314100
H          11.13855000      6.73423800     10.58972000
H          11.02670600      6.82672100     12.33651700
H           9.83716500      5.85868200     11.43662600
N           8.03285500      9.28031000      9.93291900
C           7.24627200      9.44737700      8.68680300
H           6.38369100      8.74459100      8.72912900
H           6.80669200     10.48771300      8.66314600
C           8.05478400      9.21630800      7.39545300
H           8.68972300      8.30781700      7.47952800
H           7.33111800      8.98686600      6.58174800
C           8.90449100     10.40942200      6.97263700
H           8.26933200     11.30181600      6.79773700
H           9.39735700     10.20874000      6.00329300
S          10.15632800     10.82120900      8.20343100
O          11.24943500     11.52457600      7.53004500
O          10.52153300      9.51317700      8.82266600
O           9.37825500     11.65830200      9.17252700
P          12.88272700     10.25285600     11.54292400
O          12.33927700     11.54087500     11.96921100
O          13.95695200     10.21257000     10.38022700
H          13.85234000     11.04966000      9.74727200
O          13.64980000      9.54617700     12.75353800
H          14.12480200      8.71409600     12.37885900
O          11.82668500      9.13287800     11.16817100
H          11.43867500      9.28712500     10.19237900
O          13.65257800     12.32640000      8.61840200
H          13.31980700     13.08841900      9.09279700
H          12.87373900     12.02101400      8.09543200
O           6.81031800     12.64640700      8.89291200
H           6.67000900     13.01429600      9.77168300
H           7.76997200     12.46326600      8.88363700
O           9.70118600     12.96996300     11.52804100
H          10.52432100     12.61715800     11.86728600
H           9.63876400     12.57240400     10.63043400
O           6.95699600     13.29640800     11.73669700
H           6.79571900     14.19836400     11.99869700
H           7.92963100     13.20334600     11.75579800
          47
 Energy =  -1979.23912920 a.u.  #Cluster:    8
C           8.42898300     10.50921300     10.62928300
C           9.06157800     10.36528000     11.86930600
C           9.60063000      9.14140000     12.23374700
C           9.50025500      8.05754000     11.34159800
C           8.82608400      8.22741200     10.13670900
H          10.12407300      9.02026900     13.18670700
H           8.06234200     11.49217000     10.26866200
H           9.16131000     11.24316100     12.51825000
H           8.74184100      7.41346400      9.41096700
C          10.16116800      6.76559300     11.65584100
H          10.02082900      6.46401500     12.70283500
H           9.82587000      5.93436500     11.02463300
H          11.25636500      6.86654300     11.49712600
N           8.28451900      9.43899300      9.80650000
C           7.54133900      9.59896300      8.53422600
H           6.59693200      9.01268400      8.61655400
H           7.21985200     10.67030400      8.43618400
C           8.34766500      9.17478900      7.29164500
H           8.95004300      8.26437300      7.50544000
H           7.62864300      8.86824700      6.50238000
C           9.25470500     10.27004500      6.73917800
H           8.66698100     11.13735700      6.38973700
H           9.80285100      9.90562200      5.85151900
S          10.44499900     10.83668200      7.97651400
O          11.57624100     11.45019500      7.27084900
O          10.77072400      9.60094500      8.74820400
O           9.63543900     11.77663800      8.80091900
P          12.82354600     10.55472100     11.55591300
O          12.20151000     11.85906700     11.78187900
O          14.02282900     10.44058200     10.52838400
H          13.95397300     11.19279500      9.79251400
O          13.47546200     10.01204200     12.91128500
H          14.00279300      9.15894300     12.68354200
O          11.84843300      9.35908300     11.19725900
H          11.51493800      9.43923400     10.18556000
O          13.85468400     12.34221400      8.51325700
H          13.47419500     13.14279200      8.87297300
H          13.13289200     11.98041900      7.94268000
O           5.78425100     10.74909800     10.64144300
H           6.17615000     11.49659800     11.13010000
H           4.91083900     10.64667800     11.00689300
O           9.62548800     13.33901100     11.02078800
H          10.42837400     12.99426900     11.42294400
H           9.64469100     12.91688800     10.12539800
O           7.14748700     12.86803000     12.03562800
H           6.78019200     13.72823000     12.20851100
H           8.06503300     13.05306800     11.70755100
          47
 Energy =  -1979.23891500 a.u.  #Cluster:    9
C           8.31076900     10.43928800     10.49200600
C           8.83979600     10.14946700     11.75260500
C           9.40787000      8.90689100     11.99722500
C           9.44497500      7.95808100     10.96082800
C           8.88414000      8.27526900      9.72564000
H           9.84861300      8.67481700     12.97119000
H           7.90251400     11.43730500     10.24697300
H           8.83639800     10.93058500     12.52157600
H           8.92600000      7.57357200      8.88672300
C          10.12991300      6.65499000     11.15524100
H          11.22652000      6.79600400     11.04220200
H           9.97000900      6.23930600     12.15936500
H           9.83274400      5.88952300     10.42899300
N           8.30596400      9.49481300      9.51522800
C           7.66965700      9.80994700      8.21377200
H           6.71262600      9.23959400      8.16035300
H           7.37309400     10.89298000      8.21085900
C           8.55916100      9.50815700      6.99277300
H           9.12726000      8.56382000      7.14090500
H           7.89458200      9.31226600      6.12402100
C           9.52432500     10.63358000      6.63465800
H           8.97964200     11.54451700      6.32878600
H          10.14116200     10.34986500      5.76272500
S          10.61502200     11.05142700      8.01636500
O          11.82546400     11.67113000      7.46264800
O          10.83373900      9.74093500      8.70333700
O           9.76912300     11.95138000      8.84080500
P          12.64601100     10.44059600     11.75987000
O          12.00585300     11.72333000     12.04886700
O          13.93860000     10.41177000     10.84587200
H          13.93698500     11.22428900     10.17279300
O          13.16540100      9.76558400     13.11347200
H          13.71888600      8.93786600     12.85669200
O          11.71088900      9.29290100     11.19815000
H          11.46726300      9.46943400     10.17234400
O          13.95499200     12.47008800      8.99102600
H          13.29943800     12.15086000      8.32245600
H          13.52747100     13.23588500      9.37337300
O           5.63206900     10.65411400     10.29383900
H           5.96572900     11.33567500     10.90522400
H           4.72682700     10.51149000     10.55399700
O           9.41152800     13.15184200     11.26509400
H          10.19767100     12.80253400     11.69547700
H           9.54594000     12.86435300     10.32815800
O           6.84872500     12.60967900     12.05930800
H           6.47398400     13.44761000     12.31017500
H           7.78467400     12.82060500     11.81604100
          47
 Energy =  -1979.23508200 a.u.  #Cluster:   10
C           8.03173100     10.34951700     10.78968200
C           8.30155000      9.66056800     11.96535200
C           8.88766700      8.39334700     11.91271700
C           9.20560600      7.84900100     10.66503200
C           8.93126900      8.58414700      9.50467500
H           9.12044800      7.85320600     12.83442900
H           7.58252800     11.35835600     10.81331500
H           8.09683300     10.13799300     12.92788200
H           9.24447100      8.20047200      8.51946100
C           9.89256400      6.53924100     10.53694300
H          10.07755600      6.05891400     11.50897400
H           9.34083700      5.82808700      9.91081900
H          10.89634500      6.67417000     10.07942900
N           8.32795400      9.79887000      9.57390700
C           7.92685200     10.56623400      8.36695700
H           6.81363200     10.48842400      8.28257600
H           8.13777600     11.65524500      8.55984300
C           8.59081600     10.16701700      7.04035000
H           8.91026000      9.10402000      7.03740900
H           7.82232900     10.22858100      6.23793900
C           9.76311600     11.06720500      6.66670600
H           9.42668900     12.10834200      6.50786300
H          10.19715900     10.75157000      5.69989100
S          11.08003400     11.07379500      7.91056400
O          12.32893800     11.33780100      7.22174300
O          10.95678300      9.72782700      8.55807500
O          10.64363700     12.16190300      8.85291100
P          12.19589200      9.53461100     11.88217600
O          10.80298200      9.81256800     12.26445400
O          13.19578200     10.76402800     11.79742100
H          12.67388000     11.62802000     11.52998500
O          12.89457000      8.60879500     12.97976700
H          13.87137500      8.46134300     12.68047300
O          12.42098000      8.70169200     10.56425000
H          11.84568700      9.13476900      9.76192900
O          11.87349800     13.12250100     10.99166700
H          11.40609800     12.77195200     10.17359600
H          12.45576400     13.79848800     10.66275900
O           6.08883700     12.50139400      9.54668300
H           6.93858900     12.97534200      9.68941800
H           5.41335400     13.14871300      9.71676600
O           8.54825700     13.53974500     10.03912100
H           8.80651500     13.30704900     10.94709800
H           9.29176700     13.17579200      9.51176200
O           9.55130000     12.54581400     12.47006700
H           9.85198900     11.62529200     12.48682800
H          10.36752600     13.00825900     12.20836000
          47
 Energy =  -1979.22552610 a.u.  #Cluster:   11
C           8.06872000     10.39691800     10.98288500
C           8.84664900     10.24189400     12.13958800
C           9.58676500      9.08387200     12.33488700
C           9.51016000      8.04077000     11.38006500
C           8.70778300      8.21583300     10.24928800
H          10.25438500      8.99259900     13.19927200
H           7.53570900     11.35713500     10.77261100
H           8.90768500     11.07506000     12.84794300
H           8.66628400      7.45216500      9.46307200
C          10.31471300      6.80348900     11.53967100
H           9.88585700      5.92761200     11.04043200
H          11.32679100      6.96415700     11.09099600
H          10.49053900      6.53809300     12.59046100
N           8.00365300      9.39030100     10.05642700
C           7.20433900      9.59614500      8.80557800
H           6.31686900      8.92510700      8.84517800
H           6.80871400     10.65773100      8.80697700
C           7.99490400      9.35295700      7.50826700
H           8.63174800      8.44126700      7.59432600
H           7.25850200      9.12051700      6.70680800
C           8.84970600     10.53348000      7.05949300
H           8.24005500     11.46553200      7.02352000
H           9.17394600     10.39100600      6.00797800
S          10.23725900     10.73743900      8.13200400
O          11.26856500     11.58759400      7.51248600
O          10.69760500      9.36359500      8.48077900
O           9.68397800     11.43517000      9.35375800
P          12.86649200      9.91496100     11.14805100
O          11.73131800     10.60916400     11.83164500
O          13.74239600     10.79797100     10.17619700
H          13.33579500     11.85117600      9.81052900
O          13.91204000      9.23140800     12.21848900
H          14.74548000      8.85764500     11.82666700
O          12.44287000      8.58322500     10.30626700
H          11.87798200      8.74670000      9.42733200
O          12.74050400     12.94096000      9.30454300
H          11.93686400     13.08429500      9.91503500
H          12.33919900     12.58240500      8.44030500
O           7.29413300     12.61543500      9.20954200
H           7.06093800     13.31866800      9.83227700
H           8.28341200     12.54724200      9.27790300
O          10.82242600     12.78470800     11.14874700
H          11.29614800     12.48104900     11.95547000
H          10.50547600     11.90062500     10.74153000
O           8.22339600     13.45354000     11.39997500
H           8.18989900     14.25035900     11.91354800
H           9.20137000     13.27105400     11.25122100
          47
 Energy =  -1979.22433730 a.u.  #Cluster:   12
C           8.03271000      9.84232700     10.83294900
C           8.65970000      9.47220600     12.03331300
C           9.51028500      8.37602500     12.06849800
C           9.73494200      7.63375300     10.88624300
C           9.08255300      8.02110900      9.71056800
H          10.04153600      8.11713200     12.99018600
H           7.39386700     10.76957000     10.80248300
H           8.50830600     10.09957800     12.92062100
H           9.27505900      7.50008900      8.76248000
C          10.69812500      6.50452000     10.87101700
H          11.73522000      6.91794100     10.81312000
H          10.65815500      5.89431600     11.78273500
H          10.58418200      5.83235700     10.01282200
N           8.24735100      9.12023300      9.69325700
C           7.58528300      9.55328300      8.41931200
H           6.66509300      8.93785100      8.28768100
H           7.23882900     10.62304400      8.54181400
C           8.47429100      9.44601900      7.16835400
H           9.13441600      8.54815100      7.22172000
H           7.80804800      9.26134500      6.29584900
C           9.31736600     10.68325900      6.88410400
H           8.66983300     11.57810100      6.76563700
H           9.81133200     10.58340300      5.89472200
S          10.51555800     10.94554600      8.15928200
O          11.40070200     12.06212200      7.79387300
O          11.17254700      9.63455400      8.39916200
O           9.70967100     11.35889200      9.37303800
P          12.51534300     10.24117900     11.62037400
O          11.19887000     10.65914900     12.18737000
O          13.31778000     11.35551300     10.83543500
H          12.78607800     12.37646700     10.57638000
O          13.52924300      9.64548200     12.76950000
H          14.44925500      9.42866600     12.46322700
O          12.46784900      8.95062800     10.62025600
H          12.14268200      9.13110400      9.63234300
O          12.04025300     13.39181600     10.08391400
H          11.95647800     13.12040400      9.11251400
H          11.11007400     13.21997700     10.48135900
O           7.19196300     12.44026300     11.56534600
H           6.88659200     12.92753900     10.78150200
H           8.10853100     12.75811800     11.73639300
O           9.91667800     12.64767800     11.51652500
H          10.36925400     12.46437000     12.36827900
H           9.91409300     11.73229000     11.08121600
O           7.51735900     12.71600300      9.02399400
H           8.41857600     12.39200300      9.34956600
H           7.67810600     13.55464700      8.60968700
          47
 Energy =  -1979.21361760 a.u.  #Cluster:   13
C           7.72226700     10.13053200     10.95158800
C           8.37422700      9.98245700     12.17497300
C           9.34591200      8.99361000     12.34321700
C           9.62814000      8.11692000     11.27651600
C           8.95562900      8.28998100     10.05773200
H           9.90575500      8.92564300     13.28416500
H           6.99556300     10.95821200     10.78311800
H           8.15008700     10.68798400     12.98298900
H           9.20687300      7.67247900      9.18291800
C          10.66958700      7.06236200     11.39545800
H          10.32917700      6.07998800     11.04701600
H          11.56494900      7.33357400     10.79373200
H          11.03617100      6.94090900     12.42544900
N           8.01723500      9.28837300      9.90425800
C           7.32642400      9.49678400      8.59123000
H           6.53360800      8.72171100      8.49050500
H           6.79864900     10.50293000      8.62497400
C           8.25477400      9.46520500      7.36625600
H           8.97777300      8.61920000      7.43668800
H           7.62410500      9.23885100      6.47719100
C           9.00321500     10.76943700      7.11363900
H           8.28830700     11.62875300      7.13684900
H           9.39824500     10.78633700      6.07678000
S          10.29602600     11.00772600      8.28935700
O          11.49162800     11.59587800      7.65264000
O          10.62723500      9.61910300      8.80756800
O           9.73484400     11.85947100      9.36950800
P          12.57589100     10.40641600     11.57748900
O          11.26345900     10.56635600     12.25581100
O          13.21770400     11.72832700     10.93985800
H          13.55232900     11.70312100      9.87901600
O          13.71632000      9.81558600     12.60496000
H          14.65313800      9.83155200     12.28557700
O          12.65784900      9.32849700     10.36687700
H          11.81791700      9.28219600      9.68016100
O          13.74095600     11.90996500      8.44736800
H          13.32426200     11.11640100      8.02132400
H          13.06519900     12.61159200      8.25956100
O           7.07069900     12.39598200      9.06772300
H           6.59297900     12.91408400      9.73981800
H           8.02256400     12.49626900      9.32320000
O           9.86256000     12.95383500     11.72385000
H          10.21798300     12.11956000     12.12618800
H          10.18706700     12.91235500     10.79252700
O           7.28901000     12.90154500     11.49155200
H           7.06998700     13.61686500     12.07172000
H           8.32573600     12.84510800     11.51913200
