%chk=PA.chk
%nprocshared=16
%mem=50GB
#p 6-311+g(2d,p) nosymm em=gd3 m062x

Title Card Required

0 1
 P                  4.10856200   10.08196600   14.64854900
 O                  4.65321300    8.74646400   14.44359600
 O                  4.30432000   10.64484700   16.10751000
 H                  3.80840700   11.58459200   16.20414300
 O                  4.83080800   11.20954400   13.70479500
 H                  5.81206200   11.23431500   13.91988700
 O                  2.61350100   10.25449000   14.19356300
 H                  2.25214400   11.24702100   14.45284200

