          28
 Energy =    -1121.74498100 a.u.  Frame:     1 Step:     1 Geom:     1
C          14.58276100      7.33013000     14.78796200
C          14.77889500      8.42650400     13.94173500
C          14.69464200      9.70902600     14.48188100
C          14.43357400      9.86128100     15.84195900
C          14.25368000      8.71239100     16.62159100
N          14.31766200      7.46769700     16.10387100
H          14.81420600     10.58427200     13.84108100
H          14.61027000      6.30068600     14.41462300
H          14.96615000      8.28443700     12.88133200
H          14.33447500     10.85011600     16.28229000
H          14.02150000      8.77263900     17.69033900
P          11.01822600      7.77149300     15.51420800
O          11.39940500      7.78959100     14.10141400
O          11.48574400      9.00978200     16.41063000
H          11.74541600      9.82221800     15.83035600
O           9.45329900      7.67763800     15.71522100
H           9.26543100      7.59397300     16.74369800
O          11.55071600      6.56343400     16.40608000
H          12.59939600      6.60585700     16.43066900
O          12.20016200     11.30533100     14.84958400
H          11.40433900     11.79619700     14.65506500
H          12.45321100     10.88874600     14.00546200
O          12.72465800      9.85726100     12.49401800
H          12.12865700      9.91244500     11.74847200
H          12.42312500      9.07551000     12.98821300
O           9.20799500      7.43066900     18.61216000
H           9.76080900      8.18322000     18.84776700
H           9.79161200      6.66746500     18.68834000
          28
 Energy =    -1121.74155180 a.u.  Frame:     2 Step:     2 Geom:     2
C          14.77990000      7.50459600     14.99332500
C          14.91717700      8.52225300     14.04260900
C          14.66939400      9.83733500     14.43509700
C          14.31838200     10.10094700     15.75654600
C          14.21672700      9.02658200     16.65030200
N          14.43387300      7.74908400     16.27358700
H          14.73529600     10.65489700     13.71631100
H          14.93088900      6.44996000     14.73620100
H          15.20797000      8.28544000     13.02535800
H          14.09107000     11.11392900     16.08026700
H          13.92798000      9.17331100     17.69727900
P          11.11907100      7.66366900     15.62434200
O          11.43822400      7.47682800     14.20957900
O          11.57397600      9.04173000     16.29590400
H          11.73214400      9.77894700     15.59156300
O           9.57144300      7.54030800     15.91668300
H           9.43228800      7.59422800     16.95420900
O          11.74581100      6.63190800     16.66581800
H          12.78654200      6.74611000     16.66334700
O          12.08488300     11.13479900     14.41766200
H          11.27318400     11.60773900     14.23990500
H          12.24687600     10.61200300     13.60664500
O          12.38655900      9.44697400     12.25175600
H          11.92893200      8.75054700     12.75248200
H          13.27470200      9.10486700     12.14432400
O           9.45379100      7.68488700     18.82909000
H           9.97914200      8.48367100     18.94122300
H          10.07379100      6.96245800     18.97860100
          28
 Energy =    -1121.74396430 a.u.  Frame:     3 Step:     3 Geom:     3
C          14.65756700      8.57565700     14.00163800
C          15.07488900      9.91309500     14.04218600
C          15.28853800     10.50862600     15.28262600
C          15.07507600      9.76484000     16.44258700
C          14.65278200      8.43684000     16.31736500
N          14.45910800      7.85122200     15.11937400
H          15.61216100     11.54667200     15.34633900
H          14.45716700      8.06346700     13.05162400
H          15.19871700     10.47305300     13.11862000
H          15.22580600     10.20535900     17.42309900
H          14.45117700      7.80814900     17.19170700
P          11.15357000      6.94550800     14.65864600
O           9.83948600      6.31980300     14.76849800
O          11.61510200      7.24799000     13.16601600
H          11.99484800      8.21394000     13.12551100
O          11.32026600      8.40002300     15.31865100
H          10.91484600      8.43082100     16.26518400
O          12.28104100      6.05424300     15.30953100
H          13.22812600      6.47951900     15.11445100
O          12.52267200     10.05367100     13.23543700
H          12.39652200     10.01698700     14.19579200
H          11.71271500     10.44721900     12.90187200
O           8.57443900      6.19117200     17.45842100
H           8.77178100      6.25943900     16.50904700
H           8.92305500      5.33339500     17.70043300
O          10.28086200      8.36409300     17.96529200
H           9.57107400      7.69975600     17.86684700
H          10.92663200      7.93545000     18.52323100
          28
 Energy =    -1121.74617020 a.u.  Frame:     4 Step:     4 Geom:     4
C          14.17811600      7.19290300     14.08059300
C          14.45800300      8.38053700     13.39343400
C          14.85967100      9.49576800     14.12486100
C          14.98539500      9.39485200     15.51001300
C          14.67900200      8.17391800     16.12176600
N          14.28031900      7.09212300     15.42220000
H          15.05757000     10.43944900     13.61445300
H          13.83286000      6.29163800     13.55925100
H          14.33659200      8.43825400     12.31500300
H          15.31149800     10.23905200     16.10677300
H          14.72881500      8.04442800     17.20878200
P          11.04724800      7.83474700     15.65809000
O          11.37788600      8.06764200     14.24927600
O          11.59070800      8.89702100     16.72021500
H          11.81740400      9.79909300     16.26913300
O           9.49015200      7.75070700     15.91401500
H           9.34307400      7.63061300     16.94624900
O          11.57786200      6.48404000     16.31308700
H          12.60665500      6.40523800     16.11388200
O          12.47621300     11.33845700     15.57946100
H          13.40071600     11.36556800     15.81924900
H          12.47750800     11.12505800     14.62722200
O          12.51222500     10.43722900     12.95059800
H          12.19781100      9.58128000     13.29306600
H          11.76599500     10.78646000     12.46194200
O           9.36385300      7.48308100     18.81901800
H           9.96363800      6.73491900     18.90513500
H           9.91323400      8.25593200     18.99325100
          28
 Energy =    -1121.74910810 a.u.  Frame:     5 Step:     5 Geom:     5
C          15.37418400      6.80177600     15.28067900
C          16.71666900      7.19080300     15.21342900
C          17.03881700      8.52171800     15.47627500
C          16.02281700      9.41959700     15.79462500
C          14.70292300      8.95175800     15.84245300
N          14.38977900      7.66659200     15.59203900
H          18.07551900      8.85530900     15.43144800
H          15.05903600      5.77085400     15.08052200
H          17.48820600      6.46947600     14.96074000
H          16.24276000     10.46308800     16.00146700
H          13.85999100      9.61715000     16.08584300
P          10.68073600      8.18865200     15.22998100
O          10.48969900      8.25222700     13.78256800
O          11.34688600      9.47472400     15.90742000
H          10.91807600     10.34155200     15.54115700
O           9.31068600      7.94991900     15.99128800
H           9.52210400      7.69820500     16.97984000
O          11.60885400      7.04368700     15.81718000
H          12.61629500      7.26021700     15.56852900
O          10.16749200     11.84331100     14.82397600
H           9.23218400     11.82696200     15.02360900
H          10.21570300     11.60123100     13.87841100
O          10.25987400     10.77484000     12.26351100
H          10.19478700      9.88081100     12.64098300
H          11.14337700     10.80819300     11.89731100
O          10.20692500      7.19883300     18.68946800
H          10.77071800      6.50146600     18.33461500
H          10.80492300      7.93706100     18.84065200
          28
 Energy =    -1121.74986700 a.u.  Frame:     6 Step:     6 Geom:     6
C          14.53831400      9.37865400     13.93591200
C          15.81740100      9.79336500     13.54012900
C          16.64173200      8.88362400     12.88319600
C          16.17553400      7.59211200     12.63912500
C          14.88670600      7.25472300     13.06640200
N          14.08582300      8.13294100     13.70019300
H          17.64158200      9.17602300     12.56325900
H          13.84590400     10.05676300     14.45993600
H          16.15333700     10.80558800     13.74675000
H          16.79690500      6.86188700     12.12994700
H          14.46762900      6.25520800     12.90548600
P          11.11288200      8.47361100     15.90733400
O          11.63400800      9.84435600     15.91154800
O          11.59142500      7.52869800     17.09602100
H          11.58516800      8.06825200     17.98545600
O           9.52556600      8.44983100     15.96141600
H           9.20370400      7.48006300     15.76484300
O          11.43638700      7.55810400     14.65385100
H          12.44168100      7.74267600     14.35873500
O          11.40820700      9.03808200     19.54809600
H          10.53246200      8.92830500     19.91077000
H          11.42191300      9.95532600     19.21561600
O          11.16883800     11.53168500     18.26777000
H          10.26590300     11.77183800     18.06117500
H          11.48255100     11.10046100     17.45264500
O           8.93345100      5.63878500     15.34228900
H           9.44537400      5.66575200     14.52585300
H           9.52963300      5.24329300     15.98626800
          28
 Energy =    -1121.74898600 a.u.  Frame:     7 Step:     7 Geom:     7
C          14.75803300      7.94809000     15.10255700
C          16.15739900      7.99216100     15.15479700
C          16.86658500      8.12307200     13.96307700
C          16.16902200      8.20855600     12.75893300
C          14.77082400      8.15782800     12.79078300
N          14.08240400      8.02650600     13.94073200
H          17.95588000      8.16013300     13.97107300
H          14.14598300      7.84944300     16.01204000
H          16.67356400      7.92637900     16.10815400
H          16.69598700      8.31374600     11.81512000
H          14.16756500      8.22469500     11.87752800
P          10.72405800      8.78500000     15.43713800
O          10.59379300     10.22958400     15.25116800
O          11.72322300      8.31489500     16.59443300
H          11.67925200      8.96766800     17.39568200
O           9.32546000      8.11950100     15.77845800
H           9.43943800      7.08465900     15.77666400
O          11.24199300      7.90207800     14.22768600
H          12.26979400      8.11453600     14.07023500
O          11.69849900     10.22058000     18.73847300
H          12.46832100     10.77460900     18.62387000
H          10.95311200     10.79328200     18.46688000
O           9.72013100     11.79755700     17.59127300
H           8.85217200     11.41412000     17.72729600
H           9.98778900     11.46505700     16.71656200
O           9.93274300      5.24954200     15.66298700
H          10.68530700      5.26514600     16.26244600
H          10.32168500      5.32158500     14.78397600
          28
 Energy =    -1121.75027740 a.u.  Frame:     8 Step:     8 Geom:     8
C          15.43061500      7.96442400     16.99094900
C          16.77900600      8.12686200     16.65396500
C          17.13381900      8.12439800     15.30543600
C          16.14345200      7.96280700     14.33982100
C          14.81529200      7.80536400     14.75840300
N          14.47077800      7.80479300     16.05982100
H          18.17588100      8.24854300     15.01144300
H          15.09118400      7.96097000     18.03299900
H          17.52996300      8.25216100     17.42811900
H          16.38905400      7.95805200     13.28174000
H          13.99144700      7.67632800     14.03863200
P          10.84839800      8.33786800     15.43478600
O          11.47767200      8.57829700     14.13203000
O          10.50664000      9.62578700     16.30659400
H          10.02430700     10.32810300     15.70885800
O           9.48539200      7.53755200     15.29476800
H           9.19086900      7.22598400     16.24445200
O          11.65515200      7.47856900     16.49746100
H          12.68801500      7.69925000     16.39355400
O           9.19864200     11.52378700     14.59819300
H           8.40120300     11.12273300     14.25462300
H           9.82566200     11.49485600     13.84955200
O          11.06753300     11.05946600     12.59986500
H          11.88215500     11.50129800     12.83930100
H          11.18409800     10.15302400     12.93540200
O           8.94114400      6.77488200     18.08140400
H           9.81123800      6.37348400     18.18707900
H           9.03140100      7.65036900     18.47077500
          28
 Energy =    -1121.73943280 a.u.  Frame:     9 Step:     9 Geom:     9
C          14.82076300      7.59789400     15.40743800
C          14.92594100      7.84713100     14.03465100
C          14.98821100      9.17055200     13.59962600
C          14.95876700     10.19926300     14.53963500
C          14.85172300      9.86510000     15.89543000
N          14.77760400      8.58705200     16.32362900
H          15.04124400      9.39857900     12.53383600
H          14.74594300      6.57993200     15.80468200
H          14.94114300      7.02751100     13.32462200
H          14.99223900     11.23882800     14.23108900
H          14.79479700     10.63255900     16.67605800
P          11.42234000      8.82300700     15.94270400
O          11.40428100      7.63697200     15.06565800
O          12.27414000     10.03836400     15.35788400
H          12.39703300      9.86668600     14.33703100
O          10.02733300      9.49532300     16.25193700
H           9.39845100      8.74277300     16.65164800
O          12.02797200      8.58491400     17.39004000
H          13.07031900      8.48892600     17.30126500
O          12.52658700      9.08402900     12.54575100
H          12.40221000      8.21848900     12.96434700
H          11.68188000      9.27621800     12.13369500
O           9.64945200      5.40751000     15.82356500
H          10.17685200      6.09661100     15.38002000
H          10.29860100      4.90783000     16.31615300
O           8.37366700      7.42510700     17.29973300
H           8.66134600      6.66148700     16.76231700
H           8.66917500      7.22136400     18.18558600
          28
 Energy =    -1121.74180990 a.u.  Frame:    10 Step:    10 Geom:    10
C          14.93361900      7.74194100     15.55929200
C          15.15985400      8.07754800     14.21991800
C          15.19859100      9.42607200     13.86702600
C          15.02665100     10.39463600     14.85462100
C          14.80559000      9.97585900     16.17201600
N          14.75341800      8.67240600     16.51922600
H          15.34363700      9.71903100     12.82617000
H          14.86770400      6.69922500     15.89025400
H          15.28537400      7.30356100     13.47061300
H          15.03911500     11.45103400     14.60838700
H          14.63490800     10.69186200     16.98447400
P          11.44755500      8.73523200     15.92678000
O          11.60225200      7.60148400     14.99427000
O          12.20097500     10.05853000     15.45075700
H          12.46238500      9.92279500     14.45216600
O           9.97151900      9.24467400     16.16801100
H           9.42943800      8.43405400     16.58386300
O          11.97806300      8.48922700     17.40032100
H          13.02759600      8.41122200     17.36731100
O          12.86201700      9.19228300     12.65574400
H          12.74736700      8.32307100     13.07018400
H          12.05690900      9.33175200     12.15509100
O           9.71297500      5.34567700     15.23404800
H          10.46632200      5.95875300     15.15235000
H           9.23933300      5.44635200     14.40989100
O           8.55919900      6.98043100     17.16745000
H           8.85093400      6.32048600     16.50717000
H           8.97671700      6.70080900     17.98261400
