          27
 G =       -0.028885 Gcorr = 0.166579 a.u. Nimag =   0 Frame:     1 Step:     1 Geom:     1
C           3.97469100     10.50412900      7.05901700
C           4.35673000      9.36049800      7.74737200
C           2.64780400     10.31313100      8.86536400
N           2.91173700     11.07459200      7.76376500
H           4.37589500     10.93640000      6.16185800
H           5.13568800      8.65385700      7.53458900
H           1.86341000     10.50698900      9.61524300
C           2.34620800     12.39397200      7.54430000
H           2.71737100     13.08904300      8.34564200
H           2.62418800     12.79752900      6.56027300
H           1.24063400     12.37835300      7.64266900
N           3.51282700      9.24259200      8.85734500
C           3.76645900      8.38833600     10.02275200
H           3.97800100      7.35534400      9.66899900
H           2.84125500      8.34726900     10.65042200
C           4.94405700      8.93693600     10.86081800
H           5.45714400      8.09416900     11.36071000
H           5.69761100      9.40869300     10.19328600
C           4.49984100      9.96620900     11.90020300
H           5.37110600     10.43611300     12.38941400
H           3.89648900      9.50805600     12.70256400
C           3.68758000     11.06726800     11.20129100
O           2.50338300     11.21386800     11.57833700
O           4.19210600     11.63643200     10.22377600
O           0.96399600     12.70597200     10.02877200
H           1.63549600     12.23510300     10.61321300
H           0.41829100     13.16916400     10.64802200
          27
 G =       -0.026858 Gcorr = 0.163346 a.u. Nimag =   0 Frame:     2 Step:     2 Geom:     2
C           2.85012100      9.87692900      6.85629900
C           3.11167200      8.88558600      7.79270600
C           3.56062400     10.87193200      8.75154300
N           3.14231500     11.09621700      7.46871200
H           2.49215500      9.79706400      5.84835600
H           3.01449500      7.82018800      7.71018700
H           3.86267300     11.68741400      9.49601500
C           2.88995100     12.41866200      6.92441400
H           2.49915900     12.36516500      5.89533000
H           2.13541600     12.94705700      7.55809600
H           3.81612900     13.02640300      6.92527400
N           3.55445100      9.51997300      8.96019100
C           3.76927600      8.82212100     10.23563300
H           3.82229800      7.72965400     10.03574300
H           2.85483400      8.99525200     10.87407600
C           5.02842200      9.29354400     10.98764900
H           5.63635800      8.41804900     11.28252000
H           5.68167400      9.90019700     10.32577600
C           4.66749100     10.11920700     12.22753900
H           5.57060900     10.51308300     12.72273500
H           4.11749200      9.52898100     12.97671900
C           3.80830700     11.29192600     11.72752400
O           2.57908300     11.22123800     11.90280000
O           4.39254000     12.14021700     11.02315300
O           1.33987300     11.73800100      9.58985500
H           0.45049100     11.94968900      9.83838500
H           1.81209100     11.64626800     10.47278100
          27
 G =       -0.028604 Gcorr = 0.167271 a.u. Nimag =   0 Frame:     3 Step:     3 Geom:     3
C           1.81334900     10.31513900      8.32128700
C           2.25436200      9.16460500      8.95760900
C           4.06736100     10.35291700      8.33515700
N           2.94805000     11.02854000      7.92659300
H           0.81142200     10.68691800      8.16325900
H           1.69417500      8.37458900      9.41889000
H           5.09636300     10.68391500      8.20854700
C           2.96544900     12.40945100      7.47213300
H           3.60630600     12.53229500      6.58612700
H           1.94044800     12.76595600      7.25099000
H           3.34916100     13.06069200      8.30334700
N           3.65661700      9.19158300      8.94399500
C           4.51930000      8.31936900      9.74433100
H           5.17967100      7.74185100      9.05581200
H           3.87741200      7.58232900     10.28220200
C           5.37284200      9.10741100     10.76054100
H           5.99981900      8.38500400     11.32041500
H           6.08544400      9.77686400     10.23139700
C           4.54568700      9.93803200     11.73733100
H           5.17692700     10.31954600     12.56085300
H           3.74637300      9.34387600     12.21045400
C           3.92002400     11.16730300     11.04493700
O           2.78101400     11.49392600     11.41443400
O           4.56718900     11.69630300     10.12096100
O           1.21479700     12.62210200      9.59198400
H           0.66779600     13.15340300     10.15384800
H           1.88264300     12.22609400     10.23257300
          27
 G =       -0.030474 Gcorr = 0.166280 a.u. Nimag =   0 Frame:     4 Step:     4 Geom:     4
C           3.51125000     10.63859500      6.96708000
C           4.14172600      9.56858400      7.58836900
C           2.53121100     10.32692100      8.97060500
N           2.51498300     11.08831500      7.83630000
H           3.70173600     11.09437400      6.01346000
H           4.95937600      8.95897700      7.25214900
H           1.88405000     10.46191000      9.86469600
C           1.69052700     12.26462000      7.62780200
H           0.82970400     12.28454300      8.33835300
H           2.27218900     13.18740100      7.85898500
H           1.31158100     12.31304700      6.59541000
N           3.51333400      9.37861200      8.82161300
C           3.99471800      8.48469700      9.88062200
H           4.20037700      7.48549000      9.43890600
H           3.18188800      8.35496000     10.64403300
C           5.25678400      9.06345900     10.55861000
H           5.91947800      8.23390600     10.86787500
H           5.83759300      9.67132300      9.83288500
C           4.91229300      9.93605600     11.76710600
H           5.78932700     10.51630100     12.10256100
H           4.57600300      9.33402200     12.62837300
C           3.80135900     10.90404200     11.34447600
O           2.64097800     10.65251300     11.71839900
O           4.09114400     11.79968700     10.52508400
O           1.61309500     12.83580000     10.29776700
H           1.33260700     12.45051300     11.13445100
H           2.59069000     12.66134600     10.33403900
          27
 G =       -0.028839 Gcorr = 0.166260 a.u. Nimag =   0 Frame:     5 Step:     6 Geom:     6
C           3.38959600     10.44571000      6.98969800
C           3.82966900      9.28126600      7.60547900
C           2.51356200     10.38918300      9.06025000
N           2.57251100     11.11303600      7.90484900
H           3.60268000     10.83175700      6.01074600
H           4.47833900      8.50890700      7.23923500
H           1.94922000     10.66108800      9.96742300
C           2.06726400     12.46844900      7.77924000
H           2.20220400     12.86147700      6.76178000
H           0.99732300     12.52605400      8.06558500
H           2.61566600     13.13290700      8.50416200
N           3.26367300      9.24889700      8.88436300
C           3.70925900      8.38505500      9.98298000
H           3.74821300      7.33496600      9.61831800
H           2.95410900      8.42805600     10.80715600
C           5.08956500      8.83615700     10.51297300
H           5.62966400      7.95725000     10.91206800
H           5.70789900      9.22846000      9.67633700
C           4.98388600      9.91565500     11.59006200
H           5.98176400     10.30189300     11.86257800
H           4.53096500      9.52893200     12.51900100
C           4.14654600     11.08466300     11.04883700
O           3.09698200     11.35734900     11.67512700
O           4.47064100     11.58606000      9.96463600
O           1.41837500     12.97853700     10.43837300
H           2.14589900     12.44274100     10.88706600
H           1.09452900     13.53550200     11.13168700
          27
 G =       -0.030485 Gcorr = 0.166270 a.u. Nimag =   0 Frame:     6 Step:     7 Geom:     7
C           3.09594300     10.42366800      6.92721400
C           3.72018200      9.34842400      7.54571500
C           2.45194300     10.39790400      9.08505900
N           2.31212600     11.05498600      7.89543700
H           3.16095900     10.77099900      5.91305200
H           4.40596700      8.62499500      7.14626400
H           1.98487700     10.68105100     10.05373400
C           1.57850300     12.29240300      7.70210800
H           2.27554900     13.16202900      7.73816100
H           1.03344300     12.29236200      6.74573200
H           0.85893900     12.46912800      8.53713600
N           3.29928000      9.33715300      8.87784500
C           3.86965700      8.49071800      9.93164200
H           3.90050700      7.44031800      9.56892100
H           3.19237300      8.51851600     10.82654300
C           5.27886900      8.98276600     10.33097000
H           5.90378200      8.11486300     10.61242300
H           5.78016200      9.45773900      9.46112500
C           5.23245800      9.98920200     11.48226900
H           6.20499600     10.49592100     11.60804900
H           4.99509400      9.50466100     12.44465400
C           4.16131500     11.03361600     11.14833000
O           3.06468000     10.94520100     11.73058800
O           4.38813400     11.81752300     10.20399300
O           2.02002100     13.10001500     10.27371400
H           1.85234100     12.82365200     11.18056400
H           2.96790200     12.82019700     10.16876800
          27
 G =       -0.030369 Gcorr = 0.167266 a.u. Nimag =   0 Frame:     7 Step:     8 Geom:     8
C           3.14815000     11.28743200      7.59721400
C           4.15082100     10.34866500      7.78841100
C           2.40351200      9.77912600      9.09723500
N           2.07087300     10.91069700      8.40393100
H           3.13817600     12.18825500      7.00232600
H           5.13564000     10.29417600      7.36684300
H           1.77867500      9.26832500      9.83256900
C           0.91392700     11.73361300      8.71671800
H           0.98054700     12.06193700      9.78963600
H           0.91350600     12.66114600      8.11231100
H          -0.02498300     11.18032100      8.56282000
N           3.67019100      9.40850400      8.71176200
C           4.50628600      8.45711900      9.44773200
H           5.12324500      7.88678400      8.71605900
H           3.84974200      7.72433000      9.97250000
C           5.41153800      9.18183000     10.46696100
H           6.20625500      8.48379500     10.79426300
H           5.93490300     10.03442500      9.97818000
C           4.65149200      9.70884500     11.68214000
H           5.35324600     10.07563600     12.45310900
H           4.03456200      8.93164500     12.15889300
C           3.76271000     10.89228900     11.24698700
O           2.53347000     10.69786700     11.23459000
O           4.34353000     11.91416400     10.84488300
O           3.03731200     13.44200500      9.11456700
H           3.32666600     14.29972100      9.39270500
H           3.45600900     12.82736300      9.79466900
          27
 G =       -0.030470 Gcorr = 0.166284 a.u. Nimag =   0 Frame:     8 Step:     9 Geom:     9
C           3.40355400     10.69229400      6.97990600
C           4.02084200      9.58732600      7.55112700
C           2.51022200     10.38063100      9.02357900
N           2.46891400     11.16337800      7.90455700
H           3.56539100     11.15855400      6.02607800
H           4.79644000      8.95303800      7.16470800
H           1.91254500     10.52321600      9.95041200
C           1.68242000     12.37440700      7.75709600
H           1.25697600     12.45771000      6.74523600
H           0.85776900     12.41345500      8.50858100
H           2.31032500     13.26940700      7.97620700
N           3.44589000      9.39822700      8.81036300
C           3.94325900      8.46714900      9.82917400
H           4.08794500      7.46916100      9.36124600
H           3.16432100      8.35433500     10.62969000
C           5.25857200      8.98473300     10.45320900
H           5.90271100      8.12491000     10.71546200
H           5.82640600      9.58322900      9.70964100
C           5.00812000      9.84752500     11.69159800
H           5.92221100     10.38852400     11.99177800
H           4.69249800      9.24283400     12.55879900
C           3.91508200     10.86352200     11.34131000
O           2.76580700     10.64838200     11.76823600
O           4.19790700     11.76295200     10.52345200
O           1.75584900     12.89777700     10.43696900
H           2.72629200     12.68417300     10.42119800
H           1.50173400     12.50916100     11.28040200
          27
 G =       -0.028986 Gcorr = 0.167872 a.u. Nimag =   0 Frame:     9 Step:    10 Geom:    10
C           2.99675300     10.41160500      6.95330700
C           3.59184900      9.31438000      7.56189200
C           2.38635700     10.40706800      9.12142600
N           2.25053700     11.06903200      7.93360800
H           3.05888100     10.75654500      5.93818400
H           4.24521000      8.56737100      7.15152300
H           1.94585500     10.70764700     10.09751900
C           1.55219800     12.32885000      7.75143200
H           1.12888000     12.41128800      6.73818600
H           0.73642600     12.44892600      8.49809600
H           2.24867700     13.18324000      7.93235000
N           3.19153000      9.31694100      8.90031000
C           3.74345800      8.44399600      9.94233800
H           3.72607300      7.39469500      9.57553000
H           3.08169100      8.49518400     10.84796400
C           5.17745000      8.87691000     10.32130600
H           5.77090600      7.98329900     10.59004000
H           5.68405900      9.33478600      9.44546500
C           5.18922900      9.87966200     11.47676400
H           6.18084000     10.35218800     11.58464200
H           4.95437700      9.39975500     12.44206600
C           4.14767500     10.96092800     11.16719400
O           3.05769900     10.90246000     11.76607700
O           4.38423000     11.74421100     10.22516500
O           2.06186500     13.11587300     10.38952500
H           2.99439900     12.80878300     10.25138900
H           1.90289900     12.80439100     11.28670600
          27
 G =       -0.029015 Gcorr = 0.166223 a.u. Nimag =   0 Frame:    10 Step:    11 Geom:    11
C           3.36561200     10.53342900      7.03100400
C           3.84774200      9.36221800      7.60008900
C           2.47171600     10.34927900      9.08644900
N           2.51107200     11.12518800      7.96454700
H           3.57216300     10.97170600      6.07284200
H           4.53119600      8.63383300      7.20796800
H           1.88578500     10.55436700      9.99706800
C           1.97226100     12.47175300      7.89851000
H           0.96034800     12.52376800      8.35852300
H           2.61485200     13.15300100      8.51794900
H           1.92974100     12.84412300      6.86574200
N           3.27114300      9.24997100      8.87000800
C           3.74859900      8.36471000      9.93785000
H           3.84414300      7.33386400      9.53123700
H           2.98431200      8.33563100     10.75382100
C           5.09931000      8.86253000     10.50134100
H           5.67861600      7.99633100     10.87219400
H           5.70556500      9.31725100      9.68763100
C           4.93065100      9.89239800     11.61820900
H           5.90681100     10.31057500     11.92105700
H           4.48328800      9.44903800     12.52425500
C           4.05005300     11.04600700     11.11314500
O           2.98751900     11.25382400     11.74167300
O           4.36111300     11.59913000     10.05022200
O           1.20999000     12.80349300     10.55518400
H           1.97810500     12.30935900     10.98400500
H           0.81829500     13.27323400     11.27748800
          27
 G =       -0.028853 Gcorr = 0.166246 a.u. Nimag =   0 Frame:    11 Step:    12 Geom:    12
C           3.29895000     10.49349800      7.01159400
C           3.78523100      9.32627300      7.58602100
C           2.45513300     10.34683500      9.09105900
N           2.47407900     11.10631100      7.95735800
H           3.48529800     10.91517700      6.04193500
H           4.45339200      8.58692900      7.18812300
H           1.89535900     10.57300600     10.01342200
C           1.92289500     12.44724600      7.87903100
H           2.03014100     12.87421400      6.87199600
H           0.85577500     12.46095000      8.18129400
H           2.45925000     13.10788400      8.61621100
N           3.23908000      9.23748000      8.87083500
C           3.72789600      8.35629800      9.93681200
H           3.79612600      7.31950600      9.53987700
H           2.98330600      8.34945400     10.77153000
C           5.09986800      8.83698000     10.46237400
H           5.67421900      7.96499800     10.82719700
H           5.69314100      9.27485000      9.63010500
C           4.97376300      9.87941800     11.57326200
H           5.96218400     10.28987900     11.84482000
H           4.54641100      9.45013100     12.49559300
C           4.09163800     11.03630200     11.07892600
O           3.04336200     11.25666200     11.72732800
O           4.38401700     11.57956100     10.00585500
O           1.29661300     12.85908700     10.56036000
H           2.04612600     12.33353100     10.98424300
H           0.96675300     13.38755100     11.27285000
          27
 G =       -0.028973 Gcorr = 0.166326 a.u. Nimag =   0 Frame:    12 Step:    13 Geom:    13
C           3.48142600     10.42302400      7.03739200
C           3.80414900      9.24267500      7.69288400
C           2.50110500     10.47028400      9.06207700
N           2.66904700     11.16464100      7.89895600
H           3.76925300     10.77339500      6.06436800
H           4.41113700      8.41800800      7.37247400
H           1.90326900     10.79939700      9.92987100
C           2.27562400     12.55235000      7.72956700
H           1.20469200     12.69753400      7.98258700
H           2.85408200     13.18724400      8.45330900
H           2.46673600     12.90727000      6.70679100
N           3.17347600      9.27529700      8.94215200
C           3.50639800      8.40629300     10.07618700
H           3.47619900      7.34794900      9.73572500
H           2.72530500      8.52835700     10.86789300
C           4.89645100      8.76135700     10.65263000
H           5.35907800      7.84900000     11.07306900
H           5.56909200      9.10418300      9.83664000
C           4.83069100      9.85187000     11.72201600
H           5.84293900     10.18639500     12.00941300
H           4.34255200      9.49494600     12.64519000
C           4.06475000     11.05922100     11.16081700
O           3.02329300     11.39313900     11.76910600
O           4.43249600     11.53441200     10.07744200
O           1.34398400     12.87548300     10.40239300
H           0.85935100     13.33075400     11.07579800
H           2.09342500     12.42553500     10.91326600
          27
 G =       -0.030484 Gcorr = 0.166270 a.u. Nimag =   0 Frame:    13 Step:    14 Geom:    14
C           3.60927500     10.52219000      6.96202700
C           4.10548100      9.41849500      7.64321500
C           2.52409600     10.37891200      8.93016900
N           2.62856800     11.09754900      7.77293200
H           3.88176600     10.92316800      6.00371700
H           4.87147600      8.72041700      7.36186900
H           1.85851200     10.60819000      9.79099900
C           1.93331700     12.34034600      7.49196500
H           1.05103900     12.46938500      8.16367200
H           2.59356600     13.20978600      7.71892600
H           1.60250500     12.38863300      6.44315700
N           3.41272600      9.33461800      8.85356400
C           3.76086300      8.43621600      9.95987700
H           3.88402800      7.40662300      9.55908700
H           2.90953700      8.41356200     10.69136700
C           5.04609400      8.91282500     10.67295800
H           5.61063500      8.03407400     11.03639400
H           5.71256300      9.43488400      9.95407400
C           4.74210000      9.85731200     11.83748700
H           5.65823100     10.36109700     12.19149800
H           4.31450400      9.32186700     12.70222700
C           3.74948500     10.91297200     11.33756500
O           2.55593700     10.78833100     11.66835600
O           4.15851200     11.74725600     10.50430000
O           1.80769800     13.01168400     10.13640500
H           1.45670700     12.68643900     10.97180800
H           2.76077900     12.74318300     10.22039300
          27
 G =       -0.028991 Gcorr = 0.167868 a.u. Nimag =   0 Frame:    14 Step:    15 Geom:    15
C           3.58768600     10.50464200      6.93229400
C           4.12742800      9.42563500      7.61991900
C           2.55738200     10.37208900      8.93086900
N           2.61420200     11.07100100      7.75791300
H           3.82651000     10.89369500      5.96021900
H           4.90250100      8.74071000      7.33106000
H           1.90946200     10.60307700      9.80492400
C           1.87615000     12.28794900      7.47098100
H           0.92062900     12.32313900      8.03939500
H           2.45764600     13.17873100      7.81191500
H           1.65990200     12.38317700      6.39542400
N           3.46807700      9.34761100      8.84907000
C           3.86251500      8.47199600      9.95819800
H           3.99587400      7.43951000      9.56824400
H           3.03077700      8.44248700     10.71189600
C           5.15586600      8.98366600     10.63109700
H           5.74740000      8.12135400     10.99093700
H           5.79261700      9.50932500      9.88842100
C           4.86240300      9.93732100     11.79089400
H           5.77488100     10.47020200     12.10970100
H           4.47500000      9.40410600     12.67570200
C           3.82730800     10.95835100     11.30520600
O           2.64684600     10.80327500     11.66926300
O           4.18950000     11.79294500     10.45125800
O           1.78756100     12.99989500     10.17706300
H           2.74871500     12.76085000     10.22297800
H           1.47516600     12.64326800     11.01517100
          27
 G =       -0.029103 Gcorr = 0.165938 a.u. Nimag =   0 Frame:    15 Step:    16 Geom:    16
C           3.85667700     10.61313500      7.10199200
C           4.19308300      9.41516200      7.71773100
C           2.60475300     10.42016700      8.96095800
N           2.86759300     11.21552400      7.88365900
H           4.24370900     11.06224400      6.20700800
H           4.91236000      8.67098800      7.43483100
H           1.86671200     10.63044700      9.75424000
C           2.38459900     12.57900500      7.75719400
H           1.29863900     12.64206900      7.99089400
H           2.89298200     13.21881300      8.52633800
H           2.57400500     12.98744600      6.75499400
N           3.39537300      9.29787400      8.86180400
C           3.64840500      8.37534800      9.97392800
H           3.77078000      7.34828700      9.56497100
H           2.75533700      8.36579500     10.64736800
C           4.90167500      8.80469900     10.77083400
H           5.38182400      7.90704400     11.20316800
H           5.65004100      9.25865600     10.08517400
C           4.58247000      9.80869700     11.87857500
H           5.50768300     10.19312400     12.34284300
H           3.98884400      9.35296200     12.68956700
C           3.81673100     10.99638600     11.27624600
O           2.67283000     11.21470000     11.73603600
O           4.30328500     11.57001900     10.29263700
O           1.09451200     12.65760400     10.21919200
H           0.48567200     13.03332400     10.83880000
H           1.79942900     12.23049300     10.80902900
          27
 G =       -0.029009 Gcorr = 0.166228 a.u. Nimag =   0 Frame:    16 Step:    17 Geom:    17
C           3.93697700     10.62806900      7.00570400
C           4.27178900      9.42838300      7.61955200
C           2.72280700     10.45832500      8.89108100
N           2.97245300     11.24631000      7.80516300
H           4.31131300     11.06874400      6.10097400
H           4.97607000      8.67445700      7.32469100
H           2.00964300     10.67794000      9.70215000
C           2.51015600     12.61714100      7.68311000
H           3.07579400     13.25947000      8.40980300
H           2.64782600     13.00511900      6.66443200
H           1.44152800     12.70978400      7.97915500
N           3.49776800      9.32625000      8.78069200
C           3.76235400      8.40640400      9.89236800
H           3.87669400      7.37764100      9.48521000
H           2.87824300      8.40130500     10.57735100
C           5.02713100      8.83503500     10.67111300
H           5.50304900      7.93861100     11.11079200
H           5.77299300      9.27290300      9.97215900
C           4.72831000      9.85647400     11.76828500
H           5.66141500     10.22632300     12.22878800
H           4.12550200      9.42152800     12.58378800
C           3.98784700     11.05527200     11.15510100
O           2.84882300     11.30161200     11.61228700
O           4.48635600     11.60888700     10.16633700
O           1.34986300     12.94808400     10.19147500
H           2.01827800     12.41431600     10.72605000
H           0.86901900     13.42562400     10.85239800
          27
 G =       -0.030482 Gcorr = 0.166272 a.u. Nimag =   0 Frame:    17 Step:    18 Geom:    18
C           4.15522600     10.90022400      7.06344200
C           4.60215000      9.75415300      7.70774800
C           2.74521200     10.46948100      8.76580300
N           3.00288600     11.32231000      7.73002000
H           4.56572500     11.42423300      6.22064300
H           5.45722200      9.13693500      7.50501700
H           1.91894400     10.55988500      9.50458000
C           2.27780300     12.54895800      7.45360400
H           1.28075100     12.54973700      7.95578400
H           2.81754700     13.42124800      7.89082900
H           2.14072900     12.70088800      6.37198900
N           3.70975800      9.49198500      8.75024400
C           3.91883300      8.49191500      9.80307500
H           4.19089300      7.52433400      9.32806800
H           2.95306800      8.33698900     10.35415200
C           5.01299100      8.95323600     10.79167200
H           5.56797100      8.07112000     11.16156700
H           5.75679800      9.59209400     10.26998400
C           4.43122400      9.73691400     11.96983900
H           5.22655900     10.24609900     12.54127300
H           3.89577400      9.08120800     12.67742600
C           3.46826800     10.78677600     11.40407100
O           2.24756100     10.55791100     11.48808800
O           3.95696100     11.73420900     10.75508600
O           1.62340900     12.90013000     10.08217000
H           1.15253400     12.45988400     10.79720700
H           2.56320200     12.67715500     10.31663100
          27
 G =       -0.027231 Gcorr = 0.168158 a.u. Nimag =   0 Frame:    18 Step:    19 Geom:    19
C           4.26896900     10.82367000      7.18718500
C           4.56516700      9.58998400      7.75014000
C           2.72095400     10.39744900      8.76254800
N           3.11844900     11.30200600      7.82014400
H           4.78038900     11.37387900      6.42021200
H           5.36996300      8.91128700      7.54344900
H           1.84073000     10.48921200      9.41018100
C           2.58907900     12.65108500      7.73039100
H           2.89750600     13.14883900      6.80080400
H           1.47934500     12.65358600      7.80822400
H           2.94969400     13.24416500      8.61278300
N           3.58323800      9.32490500      8.71207700
C           3.69495200      8.31772100      9.77241400
H           4.00122100      7.35142700      9.31337000
H           2.69005500      8.16347600     10.23479900
C           4.71203800      8.75906500     10.84932000
H           5.17548400      7.86080700     11.29856300
H           5.53968900      9.33237000     10.37551600
C           4.08503700      9.62251900     11.94212500
H           4.84991400      9.96181000     12.66381300
H           3.33204400      9.06687500     12.52670300
C           3.44000300     10.87377500     11.32363500
O           2.28056500     11.15075200     11.69216900
O           4.05642900     11.45610800     10.41710100
O           0.93047100     12.64084700      9.97456900
H           0.26102000     13.01941500     10.52667300
H           1.53759700     12.17298100     10.63109900
          27
 G =       -0.028848 Gcorr = 0.166251 a.u. Nimag =   0 Frame:    19 Step:    20 Geom:    20
C           4.16797200     10.85196500      7.16854300
C           4.47118600      9.61238500      7.71664900
C           2.66471100     10.42911100      8.78690900
N           3.04422100     11.33685400      7.84115400
H           4.66110400     11.40096500      6.38866400
H           5.26378000      8.92838300      7.48139100
H           1.81276800     10.53179500      9.47890000
C           2.50245600     12.68111000      7.75448500
H           2.93324800     13.24108800      6.91261700
H           1.39682200     12.66349500      7.66758800
H           2.72638700     13.22928300      8.71206600
N           3.51905700      9.35316500      8.70815400
C           3.64375800      8.32947300      9.75134500
H           3.88426900      7.35619100      9.26971100
H           2.65788600      8.21581000     10.26750600
C           4.73097600      8.72007100     10.77848200
H           5.17733900      7.80069900     11.20138600
H           5.55747800      9.26197300     10.26903600
C           4.18977700      9.60161100     11.90395400
H           5.00764600      9.96206100     12.55235600
H           3.48827800      9.05393600     12.55625800
C           3.48718900     10.82311200     11.29152900
O           2.27172600     10.96134200     11.55866300
O           4.10995100     11.50624900     10.46832200
O           0.97312100     12.72587300     10.08121900
H           0.39542700     13.15129900     10.69856700
H           1.55146800     12.14071100     10.66454800
          27
 G =       -0.028967 Gcorr = 0.167891 a.u. Nimag =   0 Frame:    20 Step:    21 Geom:    21
C           4.02075700     10.79358400      6.97455300
C           4.45309800      9.64508000      7.62448600
C           2.68274200     10.46091600      8.75566500
N           2.92127000     11.27778500      7.68638400
H           4.40945100     11.28000400      6.09953400
H           5.27133500      8.98847700      7.39503500
H           1.90005100     10.60431600      9.53305800
C           2.22745400     12.52336000      7.41221000
H           2.73750100     13.36947400      7.93354200
H           2.18679100     12.73176900      6.33166100
H           1.19236000     12.50596500      7.81918800
N           3.60481100      9.44421600      8.71612500
C           3.82336300      8.45459900      9.77692600
H           4.02839600      7.46767800      9.30808000
H           2.88100100      8.35228300     10.37874200
C           4.98569600      8.88391300     10.70001700
H           5.51998600      7.98453900     11.05866600
H           5.72881200      9.48005100     10.12928700
C           4.49894800      9.71274900     11.89034800
H           5.34250200     10.20236500     12.40698300
H           3.97851700      9.09250200     12.63984400
C           3.54629800     10.78669100     11.35286800
O           2.32389000     10.60160400     11.50040300
O           4.03390000     11.70497400     10.66310500
O           1.69660600     12.95012800     10.12729300
H           2.63962100     12.69997200     10.30452300
H           1.25484200     12.51101300     10.86149000
