          44
 Energy =    -1902.79295930 a.u.  Frame:     1 Step:     1 Geom:     1
C           8.35546600     10.51984600      8.68172700
C           9.28679100     10.48660800      7.64992600
C          10.08653600      9.35584300      7.46755000
C           9.96214700      8.28156300      8.34870800
C           9.04780900      8.37752700      9.41495800
H          10.83823400      9.32956300      6.67045500
H           7.72112700     11.39502000      8.85541700
H           9.41876400     11.36418700      7.01276100
H           9.00468100      7.59385300     10.19568400
C          10.79059200      7.06203700      8.22152500
H          11.49373300      7.10414200      7.37389100
H          11.42222600      6.92343800      9.12718900
H          10.19331200      6.14672900      8.12062000
N           8.24343300      9.46406500      9.54054800
C           7.22393200      9.49864200     10.61566600
H           6.21837100      9.47868500     10.13984300
H           7.30612200      8.55691500     11.21992500
C           7.36438500     10.72731400     11.53699300
H           8.26511600     11.33065400     11.26736300
H           6.51022100     11.41346900     11.37193600
C           7.42578000     10.32830700     13.00607900
H           6.68665400      9.55364400     13.25918400
H           7.17512000     11.19216100     13.64970100
S           9.08925000      9.76020400     13.48053400
O           9.43482600      8.79332500     12.36139200
O           8.95857600      9.13679600     14.78396800
O           9.91670400     10.98318300     13.37257100
P          11.70952000     10.97779900     10.40689600
O          13.05109000     10.75799300     10.94543200
O          11.67157800     11.42462800      8.86455900
H          12.19764200     10.67519900      8.36256400
O          10.87809300      9.61872900     10.29786400
H          10.44047800      9.33375400     11.21196800
O          10.77411900     12.06676200     11.05433300
H          10.57190000     11.71801500     12.06719400
O          13.49850800      7.78984300     10.15735400
H          12.70513400      7.43482400     10.59533000
H          13.59987200      8.66381800     10.56511000
O          13.09001700      9.04585500      7.65199900
H          13.16205700      8.52729000      8.48648600
H          13.98954900      9.31538100      7.47617700
O          11.09647800      6.76136500     11.54046000
H          10.52367900      7.49756200     11.86115800
H          11.36039600      6.31348700     12.33902400
          44
 Energy =    -1902.78951030 a.u.  Frame:     2 Step:     2 Geom:     2
C           8.29027500     11.16179700      9.21867100
C           9.30669900     11.28257900      8.27359900
C           9.91384400     10.14319300      7.74912000
C           9.52033400      8.88259200      8.21622500
C           8.49344900      8.80154000      9.16336000
H          10.72862600     10.23247300      7.02207800
H           7.84118700     12.04530700      9.69014100
H           9.66965900     12.27688100      7.99714800
H           8.20202000      7.83419600      9.59747600
C          10.21670900      7.64620800      7.78945200
H          10.54321400      7.04533900      8.66606900
H           9.60284500      7.00097900      7.15240200
H          11.16177400      7.85695500      7.25423200
N           7.86680500      9.92820300      9.61309800
C           6.73047600      9.77937900     10.55466600
H           5.79526300     10.00463200      9.99078000
H           6.66760400      8.70925900     10.87709200
C           6.80944400     10.66746600     11.81091700
H           7.11008800     11.70709200     11.55054300
H           5.78130100     10.76649000     12.22320200
C           7.72729900     10.10944700     12.88911000
H           7.44009800      9.08469300     13.18102100
H           7.64647500     10.71027800     13.81480600
S           9.45683500     10.10441000     12.35754200
O           9.53009700      8.92607100     11.41499900
O          10.27958700      9.93624600     13.55027500
O           9.60239600     11.35862500     11.57134700
P          12.59550500     10.51786900      9.93496200
O          13.36099500     10.41653800     11.17057200
O          13.44737200     10.44551900      8.58349600
H          13.48603700      9.41216000      8.37770600
O          11.58477500      9.31884500      9.61012200
H          10.89128000      9.13087300     10.35124900
O          11.74192500     11.84073500      9.72626600
H          10.99633400     11.81951900     10.48283200
O          11.47705200      6.85798800     10.99273700
H          10.69933900      7.43314100     11.08954000
H          12.00746800      7.13796500     11.76389600
O          13.21682300      7.32650400      8.60197500
H          12.57514500      7.25040300      9.34170400
H          14.03229900      7.00960200      8.98397800
O          12.62648600      8.21779300     13.21909400
H          13.10637000      8.87723200     12.70724300
H          11.84041300      8.71500900     13.51327400
          44
 Energy =    -1902.79021580 a.u.  Frame:     3 Step:     3 Geom:     3
C           7.96157700     11.26722400      9.15956000
C           8.93835000     11.51007700      8.19694300
C           9.59259500     10.44422800      7.57840000
C           9.26237100      9.13389600      7.94923700
C           8.28156400      8.93063400      8.92420200
H          10.38015100     10.63058700      6.83947400
H           7.47856500     12.09013800      9.70265700
H           9.23226300     12.53850100      7.97559300
H           8.04979600      7.91934300      9.29258300
C           9.97116700      7.96245700      7.37673800
H          10.90361000      8.24945400      6.85859900
H          10.30366000      7.26426100      8.17150600
H           9.35248100      7.39849600      6.66913400
N           7.61594200      9.98739900      9.47733200
C           6.52662700      9.71256000     10.44701600
H           5.55878800      9.88187700      9.92092700
H           6.56381500      8.62860800     10.72975800
C           6.57963400     10.55698700     11.73493700
H           6.83588600     11.61645300     11.51251000
H           5.55378400     10.59627000     12.16186800
C           7.53528500      9.99943600     12.77964400
H           7.25152500      8.97880100     13.08940500
H           7.49887200     10.60698700     13.70313800
S           9.24204900      9.96895000     12.17460500
O           9.26139900      8.79315700     11.23725100
O          10.10397800      9.83443800     13.34247000
O           9.36220400     11.21479500     11.35542300
P          12.32259400     10.05476300      9.76450600
O          13.08055800     10.42095200     10.95730300
O          13.16524000      9.85813900      8.42582100
H          13.78956700      9.02878400      8.63596400
O          11.60729900      8.62327800      9.83750700
H          10.70829200      8.65078000     10.37122700
O          11.20907300     11.07937500      9.28235500
H          10.60070000     11.30180500     10.13444000
O          13.15042000      6.65226400     11.42934600
H          13.10847800      7.21288400     12.23037500
H          12.45667000      7.03757400     10.88227000
O          14.84856500      7.59937300      9.31046200
H          15.56208900      8.00613300      9.80138100
H          14.30101700      7.17905900     10.00632900
O          12.77517900      8.65789100     13.44699900
H          11.84991700      8.94045600     13.57656100
H          13.09642200      9.32049900     12.82626500
          44
 Energy =    -1902.78709880 a.u.  Frame:     4 Step:     4 Geom:     4
C           7.81737200     11.18720500      9.32400300
C           8.77324700     11.57748600      8.38913800
C           9.50238800     10.61552100      7.68920500
C           9.26544400      9.25885700      7.94912600
C           8.30282500      8.90627600      8.89850500
H          10.27307000     10.91738600      6.97096400
H           7.27668300     11.92600600      9.93031600
H           8.99222100     12.63903500      8.25409200
H           8.14362900      7.85435100      9.18112600
C          10.05576900      8.19140300      7.28632300
H          10.47166200      7.48219300      8.03075100
H           9.46503500      7.61448400      6.56529800
H          10.93923100      8.59074700      6.75907900
N           7.56310300      9.86408000      9.53270600
C           6.49811100      9.43405000     10.47231700
H           5.51871800      9.58772000      9.96304200
H           6.60518800      8.33406700     10.65692600
C           6.50460600     10.16195000     11.83051700
H           6.67989300     11.25304700     11.70211600
H           5.48371800     10.08695600     12.26454600
C           7.51086600      9.58574600     12.81545000
H           7.30879900      8.52245500     13.03105500
H           7.43818200     10.10151300     13.79135200
S           9.21010800      9.74124500     12.20633000
O           9.31883200      8.64484300     11.18255400
O          10.08619700      9.59156900     13.36145100
O           9.22078900     11.05045700     11.48233900
P          12.28199700     10.24272000      9.84961400
O          12.97448000     10.59939100     11.08270200
O          13.16035200     10.21220000      8.52069900
H          13.84007800      9.41716300      8.68044800
O          11.69318600      8.75156900      9.81440500
H          10.78520400      8.67002700     10.32640100
O          11.08477300     11.19174600      9.41032900
H          10.45948500     11.31784900     10.26811000
O          13.38669400      6.83833900     11.32730700
H          13.33734700      7.33535000     12.17028800
H          12.66742400      7.23800600     10.82476000
O          14.87470000      7.85146200      9.11417600
H          14.75052800      7.09417800      8.55018200
H          14.51685300      7.55701700      9.97912500
O          12.85957200      8.66461700     13.45908200
H          11.91037800      8.85987500     13.57358100
H          13.14128300      9.38786400     12.88818500
          44
 Energy =    -1902.78795410 a.u.  Frame:     5 Step:     5 Geom:     5
C           7.97070200     11.58407200      9.44399900
C           8.91722800     11.80288600      8.44474500
C           9.39647000     10.73396300      7.68866300
C           8.92898200      9.44067200      7.96220400
C           7.99289500      9.25984700      8.98337600
H          10.15912200     10.89666100      6.91895400
H           7.62208000     12.40281200     10.08763100
H           9.32564800     12.80571700      8.30119300
H           7.67112200      8.25176100      9.28626500
C           9.44985200      8.25731900      7.23375800
H          10.39359600      8.47583800      6.70220700
H           9.71426100      7.43675600      7.93083400
H           8.73417300      7.86317000      6.50308100
N           7.48991900     10.32938500      9.66855600
C           6.41773700     10.08942400     10.66628000
H           5.45179800     10.38653300     10.19644400
H           6.36057300      8.98863500     10.87215800
C           6.60115900     10.82879700     12.00514900
H           6.96704000     11.86733100     11.84760000
H           5.59952900     10.94837400     12.47244300
C           7.52011700     10.09540400     12.97014400
H           7.12717200      9.09775100     13.23038300
H           7.59252600     10.64144400     13.92935200
S           9.19011100      9.90109100     12.29190300
O           9.03924900      8.79785700     11.28772400
O          10.05986800      9.61327800     13.42509900
O           9.43051300     11.17777400     11.54366600
P          12.12295200      9.79542400      9.66161700
O          13.02270000      9.93213600     10.81254000
O          12.84072000      9.69541900      8.23977700
H          13.53335000      8.90565700      8.34040500
O          11.24924300      8.46713200      9.62869700
H          10.44127000      8.52498800     10.29536100
O          11.13475400     11.00845100      9.39603800
H          10.60028500     11.19732200     10.30764700
O          14.75268000      7.60349100     11.52748800
H          14.33604100      8.46196700     11.36070500
H          14.20505300      7.24696300     12.24019400
O          14.84249000      7.59915300      8.65625800
H          14.74044400      7.39317800      9.60670700
H          15.70900700      8.00046500      8.60829300
O          12.72394400      8.52423400     13.51488300
H          12.91790600      9.09520300     12.76869400
H          11.79373600      8.75428500     13.69090200
          44
 Energy =    -1902.78580590 a.u.  Frame:     6 Step:     6 Geom:     6
C           7.81909500     11.27772800      9.36710000
C           8.74461900     11.55974800      8.36558800
C           9.41002800     10.52081000      7.71327900
C           9.14048200      9.19808400      8.08886700
C           8.20990100      8.95453500      9.10237300
H          10.15679000     10.73891400      6.94135000
H           7.33085500     12.07974000      9.93632500
H           8.99301700     12.59894300      8.13903100
H           8.02839900      7.93390400      9.47280900
C           9.86384800      8.05355300      7.47950600
H          10.27141000      7.37949300      8.25893300
H           9.22553100      7.45597600      6.81773800
H          10.74388200      8.37698400      6.89693700
N           7.52978400      9.98433400      9.68840900
C           6.49215100      9.66723700     10.70054600
H           5.49762100      9.82117600     10.22169700
H           6.56725700      8.58071200     10.96346300
C           6.58442700     10.49316200     11.99823800
H           6.79140500     11.56428900     11.78006500
H           5.58213100     10.48903500     12.47924300
C           7.61364300      9.95433900     12.98043300
H           7.38626200      8.91828800     13.28406700
H           7.60358900     10.54365200     13.91631200
S           9.28882300     10.00120600     12.28875300
O           9.31641700      8.82775900     11.35160900
O          10.20880400      9.90910600     13.41694300
O           9.31010000     11.25294700     11.47055500
P          12.27875800     10.22484800      9.76192100
O          13.05401200     10.67862900     10.91096400
O          13.09348700     10.04671500      8.40246100
H          13.48722500      9.06444300      8.46887500
O          11.64537600      8.75971000      9.86839300
H          10.78527800      8.72920800     10.45671900
O          11.09149500     11.18144500      9.30847900
H          10.51317300     11.39589200     10.17721900
O          14.22423700      7.08177900     11.76231800
H          13.63104100      7.65257700     12.29616900
H          15.09572300      7.38610600     12.00310200
O          13.81453200      7.23686600      8.91342100
H          14.04931800      7.21192500      9.86522600
H          12.88711100      6.98434900      8.93208800
O          12.96684000      9.01737600     13.41786700
H          13.15537200      9.67963300     12.74306100
H          12.01676700      9.17286100     13.58157100
          44
 Energy =    -1902.78856920 a.u.  Frame:     7 Step:     7 Geom:     7
C           7.86066300     11.36319100      9.42425400
C           8.77558200     11.61817700      8.40568100
C           9.33130300     10.56232200      7.68260100
C           8.96611700      9.24843000      8.00509300
C           8.05059800      9.03229900      9.03891000
H          10.07187300     10.75635700      6.89856100
H           7.45911500     12.17352200     10.04652000
H           9.10312700     12.64341600      8.22042100
H           7.79983500      8.01266600      9.36964000
C           9.57346100      8.08208900      7.31717900
H           9.90642800      7.31271400      8.04344300
H           8.88702000      7.60469500      6.60891800
H          10.49425700      8.35290100      6.76984600
N           7.47724800     10.08359500      9.69625600
C           6.44814400      9.80053400     10.72735300
H           5.45419700     10.03701600     10.28257000
H           6.45790700      8.70222600     10.95078600
C           6.62894600     10.57065200     12.04992400
H           6.91850200     11.62858400     11.86437800
H           5.63835600     10.63009600     12.55069200
C           7.62846200      9.91700800     12.99261300
H           7.31876400      8.89628500     13.27359700
H           7.69128100     10.47813900     13.94316900
S           9.28522800      9.83905000     12.25859400
O           9.17719900      8.71785900     11.26789600
O          10.21663200      9.60284100     13.35720500
O           9.40642500     11.12460200     11.50424700
P          12.19121900      9.92847000      9.62441600
O          13.03888700     10.19712500     10.78539300
O          12.95350700      9.80732600      8.22706400
H          13.58334800      8.96618000      8.35432000
O          11.41324100      8.53887700      9.61734700
H          10.60085200      8.54261600     10.27438200
O          11.10707300     11.04458500      9.28611000
H          10.57259900     11.23992000     10.18805200
O          13.84753700      6.46927000     11.44152000
H          13.36402100      7.13939300     11.96962300
H          14.41363600      6.04586200     12.07758000
O          14.74471600      7.57246000      8.88478200
H          14.33590600      7.12721600      9.65429300
H          15.46482300      8.06746400      9.27668400
O          12.86716800      8.45265600     13.20716100
H          13.10248900      9.12206900     12.55306700
H          11.94232400      8.69726900     13.40787800
          44
 Energy =    -1902.77889920 a.u.  Frame:     8 Step:     8 Geom:     8
C           7.74807200     11.52844500      9.25761400
C           8.69739700     11.68889400      8.25064900
C           9.34098700     10.57267200      7.70257100
C           8.99889300      9.28459000      8.14983400
C           8.06621900      9.16014200      9.19941200
H          10.13240800     10.70326500      6.95487100
H           7.25207800     12.39146000      9.71725500
H           8.96676300     12.69618500      7.91957600
H           7.86647700      8.17465700      9.66010300
C           9.63149100      8.06890400      7.58320800
H          10.41357200      8.29843400      6.84055600
H          10.17344600      7.49735000      8.37475100
H           8.91182800      7.38509100      7.11874200
N           7.45119100     10.26788500      9.72986900
C           6.46701500     10.10465900     10.84949100
H           5.46848000     10.43887700     10.48242900
H           6.37014200      9.01537100     11.08841300
C           6.84807700     10.88128900     12.12453200
H           7.37634400     11.83157900     11.86934000
H           5.90734800     11.19546100     12.62776300
C           7.69632900     10.08879100     13.10882100
H           7.21500300      9.12948200     13.38400000
H           7.76055000     10.63348700     14.07526400
S           9.32204600      9.80674900     12.45241200
O           9.12842200      8.69979800     11.42757200
O          10.23774400      9.43178900     13.51364400
O           9.66500500     11.06198100     11.69709600
P          12.15648200      9.56611500      9.82249400
O          13.10580800      9.79571900     10.94297900
O          12.79543400      9.23706700      8.38739000
H          13.62759100      8.48258700      8.45068200
O          11.27838800      8.18688400     10.05660700
H          10.40230300      8.23012400     10.65554800
O          11.05846500     10.72447400      9.55249300
H          10.61619200     11.15184700     10.45002600
O          13.10596500      6.41709100     10.92447000
H          12.20553900      6.62893700     10.60777100
H          13.19433100      6.95995700     11.77286600
O          14.59574900      7.58124700      9.13215500
H          15.08253900      8.15961000      9.73600000
H          14.04946300      6.96542800      9.77484300
O          12.99213400      8.13113600     13.00649200
H          13.31705400      8.95111800     12.56525400
H          12.09325300      8.35338900     13.30216800
          44
 Energy =    -1902.77043660 a.u.  Frame:     9 Step:     9 Geom:     9
C           7.71387000     11.40446600      9.08730500
C           8.66526800     11.63805500      8.09617200
C           9.40250800     10.57513600      7.56126400
C           9.15978200      9.26585100      8.01162800
C           8.22781100      9.07078500      9.05066300
H          10.19055700     10.76511000      6.82288400
H           7.14041900     12.22608900      9.53278700
H           8.85912000     12.66310400      7.76653100
H           8.11071100      8.07680000      9.52241900
C           9.88639500      8.10044000      7.44962900
H          10.30700600      7.46099600      8.25595300
H           9.25001400      7.46906400      6.81778400
H          10.76787000      8.39793400      6.85359100
N           7.51192600     10.12595000      9.56048000
C           6.51021500      9.88425500     10.64978500
H           5.49979100     10.13556900     10.25030100
H           6.49424100      8.79060200     10.88875500
C           6.78666600     10.68983600     11.93329500
H           7.26249100     11.67162300     11.69384900
H           5.80833400     10.94399800     12.39686600
C           7.64473300      9.95637300     12.95341300
H           7.21746900      8.96825900     13.21432000
H           7.63524000     10.50602300     13.91941000
S           9.31176000      9.78298500     12.36472700
O           9.25465600      8.65681300     11.35614800
O          10.20119900      9.50234700     13.48036300
O           9.59470500     11.05911900     11.61488700
P          12.19789200      9.73374500      9.76030000
O          13.12222500      9.99896200     10.89588600
O          12.82535200      9.41935800      8.31569400
H          13.29843600      8.38929400      8.29195200
O          11.41927100      8.28186000      9.95030100
H          10.63563100      8.20441700     10.63952800
O          11.04888100     10.83851600      9.50800800
H          10.56282500     11.21621100     10.41159000
O          14.46344100      7.68758000     11.24377900
H          14.50284700      8.67418300     11.23002800
H          13.77385500      7.50598400     11.93187500
O          13.48506500      7.05408600      8.90861500
H          14.07465600      7.19932800      9.74844600
H          12.60273500      6.86010900      9.29318800
O          12.92240500      8.60415300     13.14662500
H          13.06810200      9.48562300     12.75318300
H          12.00164800      8.61902800     13.45580600
          44
 Energy =    -1902.75965430 a.u.  Frame:    10 Step:    10 Geom:    10
C           7.76550400     11.29315700      8.99565800
C           8.80156600     11.66539500      8.14329900
C           9.70753600     10.70621900      7.67093000
C           9.54162800      9.35891300      8.03349500
C           8.51168100      9.02204400      8.93409100
H          10.55935400     11.01004800      7.05024300
H           7.06266600     12.03226600      9.39808900
H           8.93158800     12.71922500      7.87967800
H           8.43094300      7.99643800      9.33931200
C          10.44987000      8.29690900      7.53148400
H          11.32213800      8.70400800      6.99119800
H          10.88746800      7.71608400      8.37163100
H           9.94506500      7.58757400      6.86380200
N           7.63625700      9.97763400      9.38996200
C           6.54790700      9.59054700     10.34561200
H           5.56779300      9.78999900      9.85247600
H           6.59668900      8.48667000     10.52100300
C           6.62102100     10.33169400     11.69406400
H           6.99240000     11.37588900     11.55461100
H           5.58407600     10.43915600     12.08152800
C           7.47380800      9.63408600     12.74307500
H           7.16679900      8.57958600     12.88660600
H           7.29745400     10.09363200     13.73927500
S           9.19844600      9.73027400     12.32306400
O           9.38614600      8.67043300     11.24802900
O          10.00627600      9.48044900     13.50472000
O           9.37376000     11.07112300     11.67160800
P          12.34999700     10.22267500     10.10299600
O          13.05986400     10.60456600     11.34141000
O          13.13982500     10.05379700      8.71039600
H          13.55162700      9.02611700      8.57975600
O          11.75791600      8.67165600     10.17657200
H          10.83102900      8.49663000     10.66351400
O          11.07092500     11.14891700      9.72054600
H          10.45983500     11.44752600     10.55663300
O          13.63184400      7.08698200     11.32348700
H          12.79349900      7.57141200     11.56026300
H          14.19776600      7.25510500     12.08563200
O          13.68090900      7.55086400      8.86994100
H          12.78527400      7.31935000      9.22176100
H          14.24567000      7.47067900      9.69891300
O          12.82463700      8.58646300     13.14566100
H          11.94177500      8.74291300     13.52430900
H          13.13178100      9.47491300     12.84969200
