%nproc=24
%mem=50GB
#p M062X/6-311+G(2d,p) nosymm em=GD3 counterpoise=3

Title Card Required

0 1
O          11.30381000      7.65713400      3.37871700       1
H          11.93085200      7.13310100      3.90848400       1
H          11.33163900      8.52447400      3.78122300       1
O           8.83683600      6.50880000      3.81853700       2
H           9.70720200      6.93504900      3.68269100       2
H           8.65938600      6.05874100      2.99630400       2
O           9.09672400      4.75610000      5.95446700       3
H           9.01343400      5.33755400      6.71323800       3
H           8.96260600      5.34350400      5.18467000       3

