%nprocshared=24
%mem=50GB
#p M052X/6-31G* scrf=(smd,solvent=water)

Title Card Required

0 1
 C                  1.14326500    0.71807900   -0.00021100
 C                  1.19417200   -0.66957900   -0.00012100
 C                 -0.00001400   -1.37942000    0.00009200
 C                 -1.19418500   -0.66955800    0.00021000
 C                 -1.14325100    0.71810000    0.00011800
 N                  0.00001300    1.41677600   -0.00009400
 H                 -0.00002000   -2.46243400    0.00016300
 H                  2.06046000    1.29625200   -0.00037000
 H                  2.15033400   -1.17665800   -0.00022000
 H                 -2.15036000   -1.17661200    0.00037100
 H                 -2.06043500    1.29629000    0.00019500

