          17
 Energy =   -870.37394070 a.u.  #Cluster:    1
C           7.37655000     16.15353800     13.64678200
C           6.40180200     15.29266400     14.14836800
C           6.42503400     15.00146000     11.96491200
N           7.38791400     15.96573400     12.26190600
H           7.98070200     16.44098500     11.62055900
H           8.02360700     16.84405000     14.14292500
H           6.08158800     15.13150000     15.15916200
H           6.20646200     14.65013900     10.96383200
N           5.82858000     14.59267700     13.09645700
P           3.46964200     12.46572300     11.25299100
O           4.49947500     12.83790200     10.29427000
O           3.78967000     12.59261400     12.80243900
H           4.50627300     13.35275400     12.96707500
O           2.13168000     13.29093000     11.00840800
H           1.42398400     12.97434100     11.68297600
O           2.92001900     10.96182500     11.18589900
H           3.53702100     10.37117200     11.75104900
          17
 Energy =   -870.37093810 a.u.  #Cluster:    2
C           7.56731100     15.57019000     13.45895000
C           6.69133300     14.70536300     12.80314300
C           5.45025500     16.00434700     14.07759400
N           6.77599200     16.39182100     14.26598500
H           7.11140800     17.11498800     14.85982200
H           8.63154300     15.65622600     13.41325000
H           6.89609600     13.91947400     12.09260100
H           4.61166200     16.46212300     14.57201600
N           5.39341400     14.99001100     13.19875500
P           3.83419700     12.49703300     10.88317800
O           5.25069400     12.17339900     10.83411300
O           3.28938700     13.38460100     12.08276900
H           4.05858000     14.00097500     12.45969400
O           3.36042300     13.22755200      9.55135000
H           2.35032000     13.40163400      9.61319400
O           2.80704700     11.26705500     10.94068900
H           2.64034200     11.03322900     11.92290600
          17
 Energy =   -870.37005930 a.u.  #Cluster:    3
C           7.74930200     15.51644500     12.10136200
C           6.65689300     15.40180800     11.24336200
C           5.95001400     14.79044000     13.23856700
N           7.29630500     15.12782300     13.36512700
H           7.84776400     15.10191900     14.19256300
H           8.75530100     15.82821400     11.91771800
H           6.58277400     15.60372000     10.19168600
H           5.32940700     14.44287300     14.05350700
N           5.55860300     14.95407300     11.96336500
P           3.04677600     12.54973000     11.87139300
O           1.85266700     11.73683500     11.70962200
O           2.90285300     14.03723000     11.36705800
H           3.80035500     14.56444600     11.55325900
O           3.60660400     12.75717800     13.37293900
H           3.08080700     12.17779300     14.01422600
O           4.31819000     11.91433900     11.14881200
H           5.14538700     12.48514900     11.34544500
          17
 Energy =   -870.36930040 a.u.  #Cluster:    4
C           6.99935300     16.61192400     13.44719400
C           5.74905800     16.11659900     13.81467700
C           6.38054700     14.96373500     12.04719900
N           7.39617300     15.87822900     12.32584400
H           8.25002100     15.99815000     11.83126800
H           7.60001600     17.38538400     13.87513900
H           5.10403600     16.40685600     14.62163700
H           6.40642000     14.25503900     11.23144300
N           5.38697000     15.10368600     12.93929100
P           3.54364800     12.01281900     11.91069100
O           3.71665700     10.96447900     12.90081100
O           3.13256500     13.47393900     12.34687900
H           3.98052700     13.96981600     12.75744900
O           4.83484400     12.32415700     10.99511300
H           5.29273300     11.45372300     10.75215000
O           2.40012400     11.64121600     10.86413400
H           2.18631100     12.47025900     10.29908700
          17
 Energy =   -870.36890280 a.u.  #Cluster:    5
C           7.10466300     16.36831200     13.64970200
C           6.34707500     15.31435500     14.15792600
C           5.93137100     15.39353600     11.99618900
N           6.83772200     16.41534800     12.27884900
H           7.23610400     17.06051000     11.63570700
H           7.77342800     17.04721800     14.13321600
H           6.26874200     14.94606800     15.16232700
H           5.54441200     15.18509400     11.00723500
N           5.63125300     14.72867700     13.12382100
P           3.80959500     12.21815600     11.24478600
O           5.00061600     11.71341600     10.58886000
O           3.84593800     12.51677100     12.80332900
H           4.58625200     13.24129500     13.01630400
O           3.32903600     13.57235500     10.54612100
H           2.40110900     13.82553900     10.88586600
O           2.50290900     11.29538100     11.15581900
H           2.36977500     10.83798000     12.06395300
          17
 Energy =   -870.36553310 a.u.  #Cluster:    6
C           5.95201700     15.91009600     12.70978000
C           6.19775300     15.08125700     13.80355100
C           7.10321700     14.09548900     12.05784000
N           6.54256400     15.28895800     11.60814900
H           6.40472300     15.55318800     10.65622800
H           5.41906300     16.83280200     12.63409700
H           5.92502000     15.20388700     14.83178300
H           7.60524900     13.39053200     11.41708300
N           6.90384300     13.96002600     13.38260500
P           3.79473000     12.99866000     11.54616200
O           4.80402400     13.28264800     10.53623100
O           4.27963100     12.32282900     12.90515800
H           5.20134900     12.71056900     13.18478400
O           3.00960200     14.31794400     11.95848500
H           2.24834900     14.06318100     12.60217500
O           2.59133300     12.02369200     11.15488400
H           2.95753400     11.06425300     11.12101600
          17
 Energy =   -870.36394110 a.u.  #Cluster:    7
C           6.62298300     15.65859900     12.36364200
C           7.46751200     14.55931200     12.20870500
C           6.14773300     14.09765800     13.90607300
N           5.80016000     15.36920000     13.45139900
H           4.99368300     15.89492600     13.71423600
H           6.53475100     16.56209400     11.79916000
H           8.25418500     14.39409000     11.50102500
H           5.66086900     13.60058300     14.72707600
N           7.15484000     13.60091000     13.16484100
P           3.70657100     13.29909900     11.46403600
O           3.84419100     14.74539600     11.45348900
O           4.98040200     12.41965400     11.08445100
H           5.79261700     12.70866600     11.65582000
O           3.22725700     12.79103400     12.89515100
H           2.98096000     11.79661100     12.83716400
O           2.61754900     12.64162200     10.49833400
H           3.00373900     12.63055700      9.54541300
          17
 Energy =   -870.36217790 a.u.  #Cluster:    8
C           6.76749500     15.20007500     11.68087100
C           7.75123500     14.71840900     12.54932000
C           5.93564000     14.99602800     13.75192700
N           5.62610700     15.39340600     12.45385900
H           4.70327200     15.61748900     12.09158300
H           6.79723200     15.41228800     10.63438500
H           8.77281200     14.46445300     12.35141100
H           5.23282500     15.01654000     14.56638400
N           7.21979000     14.59742600     13.82271300
P           3.43544400     12.95084300     11.62342000
O           3.42653400     14.39794400     11.42991800
O           4.84572200     12.22397700     11.45558400
H           5.58117500     12.79834900     11.88462500
O           2.89482000     12.55683200     13.05961900
H           2.83268400     11.52842700     13.11834200
O           2.52948400     12.05762900     10.66706500
H           2.84773200     12.20990000      9.69898600
          17
 Energy =   -870.35844600 a.u.  #Cluster:    9
C           7.34918700     14.41124900     12.72009500
C           7.21840500     15.23580200     13.84194400
C           5.70380900     15.89697100     12.39741500
N           6.40022800     14.84818600     11.80223300
H           6.15337400     14.37345400     10.93732800
H           8.01015900     13.59581000     12.52282500
H           7.77497200     15.23740500     14.75691800
H           4.89828800     16.42635300     11.92043100
N           6.19686000     16.14531200     13.62584100
P           3.75148900     12.69485900     11.56154000
O           4.76033100     13.17141100     10.61664700
O           4.18459600     12.66324500     13.09020000
H           4.49195100     13.61555000     13.35742800
O           2.39988500     13.53131800     11.61121900
H           1.93954000     13.43810600     10.69328900
O           3.21758900     11.21480600     11.32816300
H           4.02934000     10.58017700     11.36649700
