%nprocshared=24
%mem=50GB
#p opt freq b3lyp/6-311+g(2d,p) scrf=(smd,solvent=water)

Title Card Required

0 1
 C                  3.85963057   -0.55731767   -0.65335025
 C                  2.67352570   -1.21423735   -0.72599754
 C                  2.25591886    0.83623169   -0.03504764
 N                  3.57069223    0.71954780   -0.22008440
 H                  4.24213367    1.46074344   -0.06279203
 H                  4.86381008   -0.87706420   -0.86679531
 H                  2.44722881   -2.22472719   -1.01639135
 H                  1.74432300    1.72091949    0.30157758
 N                  1.69281232   -0.32620476   -0.33788939
 P                 -1.91953567    0.10454620   -0.78941423
 O                 -1.51915367    1.54021459   -0.64413127
 O                 -0.83755769   -0.95360587   -0.75991481
 H                  0.65281466   -0.49497496   -0.16646134
 O                 -3.03417832   -0.18571074    0.34609776
 H                 -3.26556656   -1.12476486    0.40681500
 O                 -2.83110206   -0.12279521   -2.11921778
 H                 -2.28889809   -0.21570153   -2.91676238

