%nproc=24
%mem=50GB
#p M062X/6-311+G(2d,p) nosymm em=GD3 counterpoise=2

Title Card Required

0 1
C          10.99620300      7.95437100     11.13808300      1
C          11.59987700      9.16004100     11.47835200      1
C           9.37382700      9.40329200     11.71809300      1
N           9.62395300      8.12302000     11.30453000      1
H          11.43522400      7.04189500     10.76168800      1
H          12.63470700      9.43910300     11.44811100      1
H           8.38420600      9.84705700     11.86912700      1
C           8.60022300      7.12648000     11.05402900      1
H           8.99418100      6.28713100     10.44545600      1
H           8.19297500      6.72872700     11.99761900      1
H           7.75184300      7.57621500     10.46895900      1
N          10.58122500     10.04198100     11.84600700      1
C          10.75795400     11.44131600     12.23807500      1
H          11.34045100     11.46530000     13.18836400      1
H           9.75175200     11.88436500     12.45663200      1
C          11.47537100     12.27876700     11.15692700      1
H          12.09408000     13.04899000     11.66170400      1
H          12.20032000     11.64445900     10.59508500      1
C          10.52034300     12.96047000     10.18299700      1
H          11.08150700     13.59771000      9.47469600      1
H           9.82484400     13.63969400     10.70546200      1
S           9.57044400     11.74301600      9.24776200      1
O           8.97071100     12.41118100      8.08444100      1
O          10.57737100     10.70652600      8.87858600      1
O           8.59431500     11.23181500     10.25024500      1
P          10.13086100      7.44911500      7.47456000      2
O          11.15321500      6.81341200      8.29832500      2
O           8.73997500      7.40761100      8.23734500      2
H           8.01817000      7.96195400      7.73661700      2
O          10.38225200      8.91622400      6.94902500      2
H          10.55828300      9.58684100      7.77861200      2
O           9.77018400      6.69905000      6.10434700      2
H          10.46219800      6.98263400      5.40229500			2

    






