          33
 Energy =    -1651.42082200 a.u.  Frame:     1 Step:     1 Geom:     1
C          17.64043800      2.74685500     13.19209400
C          17.99119400      2.39262500     14.49014500
C          16.41649000      0.94643100     13.78181600
N          16.68407300      1.82550600     12.76328300
H          17.95514800      3.58391100     12.59592700
H          18.66726900      2.86924900     15.17312200
H          15.65238900      0.15500600     13.78214100
C          15.95825100      1.89380600     11.50762900
H          16.52645700      1.40500200     10.69787900
H          14.95884700      1.41329100     11.59927300
H          15.75727100      2.95053100     11.22658100
N          17.23215600      1.27103700     14.83032100
C          17.24241300      0.60428600     16.13339600
H          18.29938100      0.40394000     16.41851000
H          16.73941000     -0.39057400     16.02847800
C          16.53878200      1.45578900     17.21263400
H          17.27273200      1.73605000     17.99394200
H          16.20679300      2.43227900     16.78549500
C          15.36495300      0.72788900     17.84895600
H          15.04404900      1.25864500     18.76628100
H          15.64483900     -0.28513900     18.18005500
S          13.90569500      0.61177000     16.76617300
O          13.19939700     -0.58215900     17.20500100
O          13.20632400      1.91082000     16.93909800
O          14.48431700      0.51771900     15.37195800
P          14.39159900      3.88913100     14.33163900
O          15.82317200      4.00603800     14.62442300
O          13.35542000      4.16005100     15.48203100
H          13.26331100      3.26636400     16.09503800
O          13.99187000      4.95125300     13.20337200
H          12.96768600      4.92599100     13.10294300
O          13.99849500      2.51336000     13.62570000
H          14.08940800      1.71324900     14.32469200
          33
 Energy =    -1651.41703230 a.u.  Frame:     2 Step:     2 Geom:     2
C          17.64280700      1.85766400     12.89710200
C          17.57859000      0.78091700     13.77394600
C          16.79332800      2.59399100     14.85108100
N          17.16842100      2.97270400     13.58900200
H          17.93663000      1.89083400     11.86500900
H          17.81365100     -0.25288500     13.60833800
H          16.31241400      3.24389100     15.61250800
C          16.89001800      4.27002600     12.99971700
H          16.11289700      4.81098200     13.58601300
H          17.80334400      4.88609200     12.94636100
H          16.46426600      4.15094100     11.97995900
N          17.06172200      1.25901100     14.98218200
C          16.65203000      0.39156400     16.09134500
H          17.31002800     -0.50586000     16.09887700
H          15.61272600      0.01113400     15.85868200
C          16.69201900      1.10082200     17.45836600
H          17.47037000      0.62493800     18.09087100
H          17.02708600      2.15435400     17.35691300
C          15.35617900      1.05107700     18.18784600
H          15.45709500      1.48897300     19.19776100
H          15.03247000      0.00777200     18.35141300
S          14.00386900      1.92576800     17.33207200
O          13.16106400      2.47668000     18.37861900
O          14.70114000      2.93421600     16.45759200
O          13.40645700      0.86493500     16.46916100
P          13.89919100      1.76579000     13.13281500
O          15.14572800      1.02649500     12.91455100
O          14.13380100      3.20251000     13.79157000
H          14.23656900      3.12461100     14.83784100
O          13.25772400      2.16279300     11.72428400
H          12.36538800      2.64263800     11.91570300
O          12.71534300      1.06655500     13.89395100
H          12.98566200      0.92806700     14.93857000
          33
 Energy =    -1651.41694710 a.u.  Frame:     3 Step:     3 Geom:     3
C          17.54944800      1.85145900     12.81897600
C          17.49383400      0.77040800     13.69175500
C          16.78580200      2.59244000     14.80608900
N          17.12512000      2.97182600     13.53387300
H          17.80510600      1.88447000     11.77671100
H          17.70124000     -0.26690100     13.51182600
H          16.34257200      3.24615700     15.58605300
C          16.85615500      4.27932800     12.96303500
H          17.77717600      4.88327400     12.90346000
H          16.41444000      4.17790300     11.94831000
H          16.09515300      4.82441300     13.56669000
N          17.02993300      1.25132500     14.91965100
C          16.65525300      0.38968200     16.04515100
H          17.28583300     -0.52615300     16.01592200
H          15.59146400      0.03884000     15.86658600
C          16.78726500      1.09468500     17.40870300
H          17.58107900      0.59367700     18.00107700
H          17.14929400      2.13729200     17.28930800
C          15.48990400      1.08960800     18.20679600
H          15.63981000      1.58136300     19.18469300
H          15.17383700      0.05739700     18.44120500
S          14.10200000      1.91587300     17.36395500
O          13.23132600      2.41332900     18.41359900
O          14.75217300      2.96095100     16.49848700
O          13.56059200      0.83331600     16.48635800
P          13.82314300      1.84794300     13.16370900
O          15.06184700      1.13008900     12.85040700
O          14.08430300      3.26974900     13.84580500
H          14.22720300      3.17240900     14.88353900
O          13.09240500      2.27570000     11.80898000
H          12.21199100      2.74594800     12.06805600
O          12.69568900      1.11495600     13.97670700
H          13.03763600      0.93724500     14.99455000
          33
 Energy =    -1651.40739390 a.u.  Frame:     4 Step:     4 Geom:     4
C          17.81945900      2.31031300     12.81203900
C          18.24283400      2.10351500     14.12064800
C          16.31500700      0.95529300     13.82322300
N          16.62206200      1.59486500     12.64113500
H          18.26145500      2.91766800     12.03828500
H          19.09855200      2.51146600     14.63418100
H          15.40746600      0.35646400     14.04142200
C          15.75391100      1.62879700     11.45941900
H          15.68923700      2.65731400     11.04743300
H          16.11025500      0.94026300     10.67591700
H          14.70548400      1.35485500     11.74119800
N          17.30739000      1.25470700     14.73629200
C          17.25043400      0.89239400     16.17219100
H          18.27875600      0.66826900     16.52924000
H          16.65249900     -0.05173200     16.26553700
C          16.60674700      2.02355300     16.99820700
H          17.39522000      2.56562300     17.55820700
H          16.17234000      2.81429900     16.32142800
C          15.55049300      1.51230400     17.96374000
H          15.37194100      2.28437300     18.74486400
H          15.91973500      0.64254300     18.54175200
S          14.00151700      1.12694400     17.17646400
O          13.35634100      0.11924100     17.98818900
O          13.28988500      2.40488000     16.96275500
O          14.37954300      0.58588100     15.76272900
P          14.14489200      3.52568700     14.10462000
O          15.51091000      3.78565300     14.61701800
O          12.86570100      4.06454700     14.94991500
H          12.71911200      3.63440300     15.89185600
O          13.85140700      4.26064800     12.65267800
H          12.90664400      4.52571300     12.49672800
O          13.86182000      1.98400200     13.75212300
H          13.85097900      1.24525700     14.66858600
          33
 Energy =    -1651.42225360 a.u.  Frame:     5 Step:     5 Geom:     5
C          18.41983100      2.62124600     13.84377400
C          18.59049400      1.60008200     14.76654700
C          16.43296300      1.58605000     14.09970700
N          17.08195200      2.59229100     13.43847000
H          19.12644300      3.33653200     13.46912300
H          19.46516100      1.29815400     15.30890000
H          15.38015300      1.28310100     13.98625300
C          16.47347900      3.54188300     12.52452100
H          17.23346000      4.12794600     11.98574400
H          15.83090300      3.02457900     11.77636300
H          15.81239800      4.24820300     13.08440700
N          17.35622100      0.95664100     14.89979900
C          17.03690900     -0.03927900     15.92327100
H          17.79165500     -0.85505900     15.87753600
H          16.04207300     -0.50470800     15.68341400
C          17.01261700      0.61255500     17.32382000
H          17.63794000      0.01173700     18.01475400
H          17.49786000      1.61443000     17.28915300
C          15.61082700      0.74357800     17.89351000
H          15.65169600      1.17655900     18.91130300
H          15.13596600     -0.24666300     18.01835800
S          14.49118100      1.77378000     16.89551700
O          13.67043100      2.49480700     17.85250200
O          15.34927800      2.61664200     15.99578500
O          13.79431200      0.77602500     16.01754000
P          12.80460300      2.67079200     13.28535600
O          13.71264700      1.96825900     12.37474600
O          13.52627600      3.85527800     14.08305200
H          14.18185200      3.47752700     14.79346400
O          11.68650000      3.46865100     12.47775300
H          11.09317700      3.94721600     13.17554100
O          11.97820800      1.81379300     14.31221300
H          12.66056200      1.28737200     14.96782900
