%nproc=24
%mem=50GB
#p M062X/6-311+G(2d,p) nosymm em=GD3 counterpoise=3

Title Card Required

0 1
P          12.40190800      1.60851900     14.85628700         1
O          11.14924700      0.86263800     15.02316400         1
O          13.72841300      0.94257700     15.39495300         1
H          13.67009400      0.91334900     16.46812600         1
O          12.68979800      1.85508600     13.30798200         1
H          13.58755900      2.36202700     13.24123900         1
O          12.35780300      3.08731000     15.44550400         1
H          12.54636200      3.05472900     16.49010700         1
O          11.29773700     -0.97045800     17.64729800         2
H          12.10654800     -0.47934100     17.86651200         2
H          11.16105700     -0.74961800     16.72148300         2   
O          11.66087000      4.91775300     19.63979400         3
H          12.23623600      5.67059900     19.60910600         3
H          12.12288400      4.21369700     19.10651100         3


