%nproc=24
%mem=50GB
#p M062X/6-311+G(2d,p) nosymm em=GD3 counterpoise=4

Title Card Required

0 1
O           3.35973700      8.17436100      7.73814100       1
H           4.30292400      7.91608000      7.61066600       1
H           2.91609500      7.85334600      6.96044900       1
O           5.98290300      7.53374300      7.39429500       2
H           6.66756400      7.34790800      8.08029200       2
H           6.42153000      8.14238000      6.78427000       2
O           9.94228100      8.98956500      5.93430400       3
H           9.97325600      8.83392700      6.91898000       3
H          10.51604300      9.74051300      5.81649700       3
O           7.27244800      9.42069300      5.75673200       4
H           7.09336200      9.22001700      4.84333900       4
H           8.24800200      9.28442500      5.84468700       4

