%nproc=24
%mem=50GB
#p M062X/6-311+G(2d,p) nosymm em=GD3 counterpoise=4

Title Card Required

0 1
P          10.33865900      9.34093200      7.10170600         1
O           8.87453500      9.45210300      7.21265100         1
O          10.99060200      8.01993400      7.66069800         1
H          11.02540200      8.07778700      8.73810800         1
O          10.74381400      9.35239900      5.56065900         1
H          11.77431600      9.28494600      5.51652600         1
O          11.12161800     10.58438500      7.69636900         1
H          11.21978700     10.46820200      8.75481700         1
O           8.47089800      6.87604600     10.71879500         2
H           9.36843500      7.19940300     10.56458800         2
H           8.02307600      6.96991300      9.87180700         2   
O          11.31548600     12.54495200     11.88876900         3
H          12.13007300     13.01232200     11.75816100         3
H          11.39505600     11.72023500     11.33771500         3
O           7.17373700      7.35374500      8.21546200         4
H           7.34131700      6.58119600      7.67652800         4
H           7.75956900      8.03484200      7.84224900         4

