%nprocshared=24
%mem=50GB
#p M062X/6-311+G(2d,p) nosymm em=GD3 counterpoise=2 scrf=(smd,solvent=water)

Title Card Required

0 1
 C                 -3.96330200   -1.75044200   -1.13987900          1
 H                 -4.79617900   -2.39409100   -0.86613500          1
 H                 -4.16064200   -1.26202300   -2.09128400          1
 H                 -3.04308300   -2.32729000   -1.19364100          1
 C                 -5.08483100    0.08698700    0.00404900          1
 H                 -5.89619900   -0.60977900    0.20117700          1
 H                 -5.01368900    0.80665400    0.81382400          1
 H                 -5.24660300    0.59410000   -0.94461100          1
 C                 -3.54541400   -1.37069400    1.23183800          1
 H                 -3.51338700   -0.62576800    2.02130200          1
 H                 -4.35589000   -2.07115100    1.41958400          1
 H                 -2.59755900   -1.89998800    1.16705200          1
 C                 -2.64211900    0.19442800   -0.48961600          1
 H                 -2.89759600    0.57060200   -1.48009400          1
 H                 -1.78895000   -0.47596800   -0.58366400          1
 C                 -2.32741500    1.34936900    0.45137600          1
 H                 -2.11640200    0.98974400    1.45831400          1
 H                 -3.17760200    2.02998200    0.51279300          1
 C                 -1.12249000    2.14041100   -0.06573800          1
 H                 -1.01575400    3.05193200    0.53168100          1
 H                 -1.27712600    2.46499400   -1.09643600          1
 N                 -3.80820300   -0.69567000   -0.08237100          1
 C                  0.22145700    1.43420500    0.01713100          1
 O                  0.38204600    0.53696000    0.89668600          1
 O                  1.12492200    1.81661400   -0.78604000          1
 P                  3.64169200   -0.51573800    0.05274800          2
 O                  5.03495500   -0.76243000    0.50589600          2
 O                  3.47629800    0.90685600   -0.60095100          2
 H                  2.49355700    1.25045100   -0.67150400          2
 O                  3.14216700   -1.59755600   -1.03392600          2
 H                  3.75605900   -1.69172200   -1.77871100          2
 O                  2.56439700   -0.66943800    1.17922200          2
 H                  1.66548900   -0.14856300    1.02368800          2

