%chk=MImSO3.chk
%nprocshared=16
%mem=50GB
#p 6-311+g(2d,p) nosymm em=gd3 m062x

Title Card Required

0 1
 C                 18.41983100    2.62124600   13.84377400
 C                 18.59049400    1.60008200   14.76654700
 C                 16.43296300    1.58605000   14.09970700
 N                 17.08195200    2.59229100   13.43847000
 H                 19.12644300    3.33653200   13.46912300
 H                 19.46516100    1.29815400   15.30890000
 H                 15.38015300    1.28310100   13.98625300
 C                 16.47347900    3.54188300   12.52452100
 H                 17.23346000    4.12794600   11.98574400
 H                 15.83090300    3.02457900   11.77636300
 H                 15.81239800    4.24820300   13.08440700
 N                 17.35622100    0.95664100   14.89979900
 C                 17.03690900   -0.03927900   15.92327100
 H                 17.79165500   -0.85505900   15.87753600
 H                 16.04207300   -0.50470800   15.68341400
 C                 17.01261700    0.61255500   17.32382000
 H                 17.63794000    0.01173700   18.01475400
 H                 17.49786000    1.61443000   17.28915300
 C                 15.61082700    0.74357800   17.89351000
 H                 15.65169600    1.17655900   18.91130300
 H                 15.13596600   -0.24666300   18.01835800
 S                 14.49118100    1.77378000   16.89551700
 O                 13.67043100    2.49480700   17.85250200
 O                 15.34927800    2.61664200   15.99578500
 O                 13.79431200    0.77602500   16.01754000

