%chk=PA.chk
%nprocshared=16
%mem=50GB
#p 6-311+g(2d,p) nosymm em=gd3 m062x

Title Card Required

0 1
 P                 12.80460300    2.67079200   13.28535600
 O                 13.71264700    1.96825900   12.37474600
 O                 13.52627600    3.85527800   14.08305200
 H                 14.18185200    3.47752700   14.79346400
 O                 11.68650000    3.46865100   12.47775300
 H                 11.09317700    3.94721600   13.17554100
 O                 11.97820800    1.81379300   14.31221300
 H                 12.66056200    1.28737200   14.96782900

