%nproc=24
%mem=50GB
#p M062X/6-311+G(2d,p) nosymm em=GD3 counterpoise=5

Title Card Required

0 1
P          11.23038000      9.83369500      6.74365700         1
O           9.87912400     10.41099100      6.64557900         1
O          11.30838700      8.26613800      6.90511400         1
H          11.05772700      8.01095100      7.91938400         1
O          12.02096400     10.12390000      5.39192000         1
H          12.96813700      9.72367300      5.50264600         1
O          12.13958200     10.49546500      7.85838500         1
H          11.88298900     10.07731600      8.81153800         1
O           8.00635100      6.85043400      8.55878200         2
H           8.92218000      7.03233200      8.83589800         2
H           7.83453200      7.49223300      7.85299300         2   
O          11.64800100     11.12772100     12.40137900         3
H          12.54426400     11.42343000     12.49557400         3
H          11.66059700     10.50368900     11.63250800         3
O           7.49403800      8.82130700      6.63339500         4
H           8.32963500      9.32823700      6.61600000         4
H           7.47265200      8.37853900      5.78492300         4
O           6.08282700      7.34331800     10.42743900         5
H           5.37189400      6.73541300     10.25868600         5
H           6.77908100      7.10140900      9.77677400         5 


