          30
 Energy =     -0.08410700 a.u.  #Cluster:    1
C           6.81996200     11.65594300      7.74528100
C           6.92902300     10.57768200      8.63681500
C           6.10689600     10.50870700      9.74662600
C           5.17776200     11.53767900      9.98110900
C           5.09992000     12.59461200      9.07973000
H           6.15521300      9.65624500     10.42557500
H           7.44878900     11.71001000      6.81565600
H           7.63563400      9.77864200      8.40190600
H           4.34672600     13.38188800      9.19341300
C           4.23778600     11.48133800     11.12844400
H           4.55418000     10.78061800     11.91227100
H           4.08227300     12.45759300     11.60616000
H           3.24328200     11.13847000     10.77150100
N           5.92597900     12.64692400      7.98859000
C           5.74668100     13.75041900      7.01290600
H           5.79183600     14.71653400      7.56029400
H           6.60589300     13.75183900      6.29046300
C           4.41147500     13.62245000      6.24744700
H           3.65971000     13.08552600      6.87110300
H           3.98981300     14.63909600      6.10597800
C           4.53113400     12.93931400      4.89302700
H           5.08529000     13.56633500      4.17461000
H           3.53097300     12.78825500      4.45094500
S           5.36876600     11.31559600      4.96561500
O           4.86360500     10.54479200      3.84064700
O           5.01524200     10.79914500      6.33622900
O           6.80695200     11.69215000      4.97523800
O           3.12987100     11.12147800      8.20254900
H           3.83971600     10.95320000      7.51864900
H           2.42961800     10.53753600      7.94123300
          30
 Energy =     -0.08355500 a.u.  #Cluster:    2
C           4.64356700      9.94382100      7.70508500
C           3.30951600     10.11618700      8.06016600
C           2.93149500     11.20576000      8.84341000
C           3.90490500     12.09655500      9.29096100
C           5.24570400     11.87992300      8.93672200
H           1.87960700     11.37446200      9.07791300
H           4.96423000      9.12589400      7.03434900
H           2.56265900      9.42660600      7.66605800
H           6.03325000     12.57887400      9.25155200
C           3.56228500     13.33148500     10.03968700
H           2.52135900     13.35489900     10.38488200
H           4.20321700     13.49915700     10.91369500
H           3.69824700     14.20721100      9.36419700
N           5.59715800     10.80701400      8.17279500
C           7.00345900     10.63831300      7.73176400
H           7.60564400     10.31499100      8.60978500
H           7.05323000      9.80863600      6.97713300
C           7.61405000     11.90980400      7.10667300
H           7.49244100     12.78224900      7.78487500
H           8.71243500     11.75080100      7.03484000
C           7.07123800     12.24209500      5.72479800
H           7.19451200     11.39162000      5.03040300
H           7.63542300     13.07854200      5.27779200
S           5.30216000     12.70499800      5.75473600
O           5.07160500     13.55969400      4.60048500
O           5.11873800     13.31289100      7.10159500
O           4.64342300     11.34842100      5.70758900
O           5.80774400      9.08893500      5.01917500
H           5.33144400      9.95439900      5.19704700
H           5.47526100      8.80578100      4.17984700
          30
 Energy =     -0.08312000 a.u.  #Cluster:    3
C           4.35436900     10.05585900      7.33659900
C           3.01482500     10.43306100      7.35734100
C           2.58947500     11.45034600      8.20883700
C           3.51105000     12.06019900      9.05793800
C           4.84727400     11.63247400      9.03855500
H           1.55162200     11.78592500      8.18658100
H           4.73084500      9.31512400      6.61323800
H           2.32187700      9.96547500      6.64808400
H           5.60060200     12.11256200      9.67786700
C           3.15256600     13.22197800      9.90938200
H           2.07127100     13.39754400      9.97000900
H           3.53016900     13.13901100     10.93566900
H           3.60458700     14.14024000      9.47005600
N           5.24449500     10.63258500      8.20313900
C           6.67557100     10.24581300      8.11993000
H           6.90540700      9.59735600      8.99513200
H           6.82411400      9.63030500      7.19601800
C           7.65544500     11.43815300      8.07362000
H           7.41346700     12.18174700      8.86361600
H           8.66435200     11.05499700      8.33926900
C           7.72634900     12.13042800      6.72021300
H           8.07581000     11.44802900      5.92943700
H           8.44987600     12.96259700      6.74614600
S           6.10387200     12.80457400      6.20902300
O           6.35924300     13.80755000      5.18582400
O           5.51088500     13.27280200      7.49243000
O           5.41308400     11.55544500      5.74443400
O           3.45828800     10.15860200      4.49464300
H           4.15914700     10.71822800      4.91046200
H           3.43006700     10.46100900      3.59651600
          30
 Energy =     -0.08294000 a.u.  #Cluster:    4
C           4.42826200     10.03286800      7.36894000
C           3.06965400     10.33338300      7.40648700
C           2.59816700     11.32650300      8.26171100
C           3.49502200     11.99106600      9.09645900
C           4.85325000     11.64163800      9.05856500
H           1.54264200     11.60222700      8.25233200
H           4.83625400      9.31416800      6.64115700
H           2.39663100      9.82929000      6.70042700
H           5.58693900     12.16859000      9.68339300
C           3.08151100     13.13250200      9.95054200
H           3.46940400     14.07461400      9.50107600
H           1.99265000     13.24253400     10.02913100
H           3.48056700     13.07626700     10.97052000
N           5.29579400     10.66364400      8.22003100
C           6.74547000     10.36015100      8.11770000
H           7.02627100      9.73465200      8.99476700
H           6.91588700      9.74558800      7.19712600
C           7.65277500     11.60734400      8.04569900
H           7.37897800     12.34329900      8.83253600
H           8.68627300     11.28668900      8.29932200
C           7.66288200     12.28902100      6.68510000
H           8.03775000     11.61956800      5.89496000
H           8.33866600     13.16084700      6.69182400
S           5.99754000     12.86648500      6.19397800
O           6.18109000     13.88014400      5.16578200
O           5.39488100     13.30330900      7.48357700
O           5.37395800     11.57827800      5.73903400
O           3.32349400     10.20089200      4.63980400
H           4.06143700     10.75611700      4.99714400
H           3.23590500     10.48833400      3.74088500
          30
 Energy =     -0.08181700 a.u.  #Cluster:    5
C           3.90430200     10.24252800      7.22955200
C           2.67922700     10.88875600      7.36356600
C           2.54776700     11.95824100      8.24788700
C           3.64296800     12.34909200      9.01536900
C           4.85774100     11.66019300      8.87493800
H           1.60431800     12.50159600      8.31596600
H           4.05267500      9.43284700      6.49683100
H           1.84843900     10.58783100      6.72489800
H           5.74731900     11.96286500      9.44480800
C           3.60380900     13.54125500      9.89866300
H           4.19245900     14.35809200      9.42153100
H           2.59057900     13.93042300     10.05740900
H           4.04639200     13.36283400     10.88614500
N           4.96686500     10.61247100      8.00964100
C           6.27908300      9.95093600      7.80376900
H           6.48998800      9.31679600      8.69331900
H           6.20672200      9.26267100      6.91929400
C           7.44207000     10.93650200      7.56461700
H           7.47217500     11.71437100      8.35791500
H           8.39020200     10.36699000      7.68150100
C           7.42638600     11.59274600      6.19192700
H           7.44492000     10.83684800      5.38585100
H           8.33016400     12.20857600      6.04601000
S           5.96416800     12.66092500      5.94211200
O           6.32072100     13.63408200      4.92146900
O           5.66983800     13.17881400      7.30702400
O           4.92492000     11.64218500      5.54191200
O           5.49523300      9.23591500      4.58552500
H           5.25403700     10.16023000      4.87966600
H           5.34451900      9.24240200      3.65089500
          30
 Energy =     -0.08011600 a.u.  #Cluster:    6
C           4.27244400     10.83623600      7.21450500
C           3.00105900     11.44995800      7.19229000
C           2.57449400     12.17881700      8.27818100
C           3.40544600     12.27770400      9.41853000
C           4.64724200     11.66695900      9.40683800
H           1.61255700     12.69340000      8.26720000
H           4.62855200     10.21300100      6.35866200
H           2.41708200     11.36414800      6.26571600
H           5.33733100     11.74487400     10.25035500
C           2.95848000     13.05703300     10.60175900
H           3.61324400     12.93867400     11.47568700
H           2.93130800     14.13760300     10.37278400
H           1.94430700     12.77333300     10.92377200
N           5.06048700     10.94419100      8.31224700
C           6.45314000     10.43980500      8.26501400
H           6.67742500      9.90750400      9.21363400
H           6.54344100      9.68411000      7.44236600
C           7.45677400     11.59324400      8.03311700
H           7.03277300     12.54984300      8.41470400
H           8.35889400     11.40451900      8.65014300
C           7.86985300     11.76276700      6.57803400
H           8.35945900     10.85537200      6.18723600
H           8.61882900     12.56916400      6.48391500
S           6.46696900     12.16783700      5.47641200
O           6.96675000     13.11252400      4.49112600
O           5.40387000     12.64336700      6.41445700
O           6.04741200     10.81825400      4.97132100
O           3.49577400     10.18126200      4.22809400
H           4.44484200     10.37305900      4.43908100
H           3.40975600     10.45144900      3.32283200
