          30
 G =       -0.083106 Gcorr = 0.179226 a.u. Nimag =   0 Frame:     1 Step:     1 Geom:     1
C           6.76463400     11.05490600      7.90123400
C           6.18262400     10.28245900      8.90194700
C           5.21192700     10.83519500      9.73457800
C           4.85617000     12.17299400      9.57436300
C           5.48734600     12.93482800      8.57921700
H           4.71426300     10.21630000     10.48261000
H           7.47051100     10.61857000      7.17664600
H           6.45109000      9.22212700      8.97635800
H           5.20853800     13.98432700      8.41315600
C           3.75470800     12.79616000     10.35002000
H           4.01170600     13.78528800     10.74795400
H           2.87740100     12.93404900      9.67793100
H           3.41594200     12.18059900     11.19269600
N           6.43816800     12.37931900      7.77758300
C           7.03756000     13.16234900      6.66760200
H           7.80883300     13.83668100      7.10313400
H           7.56098700     12.45422200      5.97538600
C           6.02023700     13.98361200      5.84635100
H           5.34077900     14.55617200      6.51423100
H           6.58753300     14.75593200      5.28337000
C           5.20094400     13.15530700      4.86721800
H           5.83746600     12.66320500      4.11504100
H           4.50338900     13.79712900      4.30313800
S           4.22289700     11.86125000      5.71405300
O           3.16473700     11.45703400      4.80022400
O           3.81338400     12.52176000      6.98458900
O           5.28481200     10.83493100      5.98239200
O           6.20734800      8.38966800      6.69396300
H           5.80882800      7.76029800      6.10745900
H           5.81523800      9.25334500      6.41556500
          30
 G =       -0.082928 Gcorr = 0.179070 a.u. Nimag =   0 Frame:     2 Step:     2 Geom:     2
C           6.88139300     11.28532900      7.87686100
C           6.46172300     10.51361700      8.95664400
C           5.51039800     11.01283500      9.84306100
C           5.00916900     12.29955400      9.65336400
C           5.47742500     13.06456200      8.57460300
H           5.13878900     10.38868400     10.65702900
H           7.56615100     10.88075500      7.11524300
H           6.83626800      9.48570000      9.04961700
H           5.07892100     14.07008300      8.38358000
C           3.91612600     12.85270100     10.49158000
H           4.10037500     13.88351800     10.81747800
H           2.97703200     12.86379200      9.89313300
H           3.71396900     12.25516900     11.38930600
N           6.41234000     12.56222700      7.72076500
C           6.83758500     13.33968500      6.52964200
H           7.56271800     14.11367300      6.86781800
H           7.37983100     12.65216400      5.83133600
C           5.67770400     14.00375100      5.75662400
H           4.99346100     14.53880600      6.45036400
H           6.11340900     14.79836100      5.11325500
C           4.88029400     13.04141400      4.88839100
H           5.50756100     12.57416400      4.11289900
H           4.07878100     13.57551400      4.35062700
S           4.10979300     11.70561600      5.87321300
O           3.02872100     11.15114800      5.07185400
O           3.73751700     12.38970900      7.14228000
O           5.28864400     10.80243100      6.09632000
O           6.36923500      8.50858300      7.03115100
H           5.99720200      7.79391600      6.53199200
H           5.91747400      9.31255700      6.66997900
          30
 G =       -0.081711 Gcorr = 0.182760 a.u. Nimag =   0 Frame:     3 Step:     4 Geom:     4
C           6.53207900     10.82805600      8.13394500
C           5.82215900     10.24933300      9.18153900
C           4.97774800     11.03143100      9.96792700
C           4.87896600     12.39790700      9.71441000
C           5.62782800     12.95526400      8.66630200
H           4.37851000     10.57164200     10.75498500
H           7.16129200     10.22434300      7.46008300
H           5.88838500      9.17203700      9.33545800
H           5.54966900     14.02410500      8.42312100
C           3.92424600     13.26985300     10.44331200
H           4.36591200     14.22061600     10.76546100
H           3.07783100     13.51880200      9.76288300
H           3.48964300     12.79155700     11.32968600
N           6.45327000     12.17656600      7.91091200
C           7.16959900     12.75954600      6.74945300
H           8.00890100     13.37910400      7.13625400
H           7.62510200     11.92885300      6.14639000
C           6.26903200     13.60216000      5.82208000
H           5.70140600     14.36099200      6.40283200
H           6.93647700     14.18914400      5.15356600
C           5.31553500     12.77898200      4.96867300
H           5.86346300     12.04894600      4.34554400
H           4.77014700     13.42680900      4.26144500
S           4.08645300     11.86898900      5.97008200
O           2.94213500     11.61674900      5.10821700
O           3.87181200     12.75159800      7.15025000
O           4.88367900     10.65273800      6.37382600
O           7.04811100      9.80366900      5.09751200
H           6.81228300      9.04736500      4.57907900
H           6.19833400     10.06286300      5.55478900
          30
 G =       -0.081529 Gcorr = 0.182942 a.u. Nimag =   0 Frame:     4 Step:     5 Geom:     5
C           6.64220400     10.90831200      8.16549600
C           5.96125700     10.27368800      9.19986800
C           4.99250800     10.96559200      9.92503400
C           4.73893900     12.30230200      9.62470400
C           5.46092000     12.92047200      8.59195900
H           4.41866800     10.45588900     10.70018800
H           7.37083800     10.36972000      7.53823200
H           6.15165100      9.21719600      9.39014500
H           5.26363400     13.96469400      8.31203700
C           3.65262300     13.06832400     10.28519400
H           3.96064000     14.07321200     10.59839100
H           2.81512900     13.19570000      9.56154800
H           3.23783700     12.56167700     11.16532700
N           6.40915300     12.23038900      7.89691000
C           7.10096800     12.86712800      6.74891800
H           7.83930000     13.59579700      7.15105100
H           7.68208700     12.08384400      6.19214800
C           6.14719600     13.56708300      5.75826700
H           5.46506300     14.26483000      6.29034200
H           6.76749800     14.21434800      5.10008900
C           5.34160500     12.61012700      4.89201200
H           6.00271900     11.93735100      4.31598500
H           4.75394200     13.16673100      4.14221700
S           4.18853200     11.58173700      5.86890300
O           3.12420200     11.16782000      4.96795300
O           3.81393700     12.46152200      7.01059700
O           5.10910800     10.48407300      6.34389000
O           7.41685000      9.87653200      5.18801800
H           7.29965900      9.08349500      4.68434100
H           6.52133900     10.04043100      5.60024600
          30
 G =       -0.084107 Gcorr = 0.179963 a.u. Nimag =   0 Frame:     5 Step:     6 Geom:     6
C           6.81996200     11.65594300      7.74528100
C           6.92902300     10.57768200      8.63681500
C           6.10689600     10.50870700      9.74662600
C           5.17776200     11.53767900      9.98110900
C           5.09992000     12.59461200      9.07973000
H           6.15521300      9.65624500     10.42557500
H           7.44878900     11.71001000      6.81565600
H           7.63563400      9.77864200      8.40190600
H           4.34672600     13.38188800      9.19341300
C           4.23778600     11.48133800     11.12844400
H           4.55418000     10.78061800     11.91227100
H           4.08227300     12.45759300     11.60616000
H           3.24328200     11.13847000     10.77150100
N           5.92597900     12.64692400      7.98859000
C           5.74668100     13.75041900      7.01290600
H           5.79183600     14.71653400      7.56029400
H           6.60589300     13.75183900      6.29046300
C           4.41147500     13.62245000      6.24744700
H           3.65971000     13.08552600      6.87110300
H           3.98981300     14.63909600      6.10597800
C           4.53113400     12.93931400      4.89302700
H           5.08529000     13.56633500      4.17461000
H           3.53097300     12.78825500      4.45094500
S           5.36876600     11.31559600      4.96561500
O           4.86360500     10.54479200      3.84064700
O           5.01524200     10.79914500      6.33622900
O           6.80695200     11.69215000      4.97523800
O           3.12987100     11.12147800      8.20254900
H           3.83971600     10.95320000      7.51864900
H           2.42961800     10.53753600      7.94123300
          30
 G =       -0.081534 Gcorr = 0.182938 a.u. Nimag =   0 Frame:     6 Step:     7 Geom:     7
C           6.34523700     10.52899900      8.12817800
C           5.47184700      9.94393200      9.03975900
C           4.58972100     10.73907900      9.76978200
C           4.61582300     12.12170800      9.60049200
C           5.52664700     12.68272100      8.69168200
H           3.86665500     10.27940200     10.44493000
H           7.01197800      9.92102800      7.49556100
H           5.44550900      8.85747200      9.12658000
H           5.55212500     13.76708300      8.51505100
C           3.63787000     13.01818800     10.26604700
H           4.09886400     13.91086300     10.70584600
H           2.90409700     13.37226200      9.50601200
H           3.06203900     12.52142700     11.05656900
N           6.38619600     11.89056400      7.99030300
C           7.28073700     12.48638400      6.96716300
H           8.10440800     13.01665300      7.49466900
H           7.75150800     11.66126200      6.36820200
C           6.56307600     13.44858400      5.99749700
H           5.97964900     14.21214700      6.55595300
H           7.34758000     14.02217000      5.45664500
C           5.67092400     12.75245000      4.98035500
H           6.24217300     12.02149800      4.37968700
H           5.26384000     13.48091200      4.25858000
S           4.26665200     11.87988700      5.76047500
O           3.22503200     11.76807500      4.75129600
O           3.96590400     12.70357600      6.96428000
O           4.92222900     10.58447400      6.17245600
O           7.16759600      9.65183700      5.11390600
H           6.28656400      9.94796800      5.48117800
H           6.94752200      8.94741100      4.52087800
          30
 G =       -0.083103 Gcorr = 0.179230 a.u. Nimag =   0 Frame:     7 Step:     8 Geom:     8
C           6.01093500     10.22735500      7.92446900
C           4.89708500      9.66965900      8.54522600
C           4.05702900     10.46739400      9.31903500
C           4.36212900     11.81652000      9.48888200
C           5.51222700     12.34040800      8.87916300
H           3.15307900     10.04503400      9.76031700
H           6.64128400      9.63816400      7.23944800
H           4.65883000      8.61596500      8.35846700
H           5.76355000     13.40551900      8.97451200
C           3.45545100     12.74764900     10.20591200
H           3.97982200     13.40689900     10.90818000
H           2.95216300     13.40278300      9.45889800
H           2.66237500     12.23569500     10.76505200
N           6.32517200     11.54443100      8.13020100
C           7.48974700     12.12168200      7.41249100
H           8.31251500     12.25686300      8.15010100
H           7.83963100     11.38046500      6.64916100
C           7.19722300     13.45760600      6.69589500
H           6.66326700     14.16143900      7.37054800
H           8.17261500     13.94678100      6.48465100
C           6.42374800     13.30652500      5.39401900
H           6.97873900     12.70672400      4.65561200
H           6.25705500     14.29040500      4.92392500
S           4.79304900     12.51763400      5.65259400
O           3.97464100     12.83442700      4.49155000
O           4.35564300     13.06450600      6.96699100
O           5.19536400     11.07878600      5.79803100
O           4.74950900      8.41045800      5.92712600
H           4.85798200      9.38960000      5.84411400
H           4.30814600      8.16264000      5.12543600
          30
 G =       -0.083555 Gcorr = 0.180851 a.u. Nimag =   0 Frame:     8 Step:     9 Geom:     9
C           4.64356700      9.94382100      7.70508500
C           3.30951600     10.11618700      8.06016600
C           2.93149500     11.20576000      8.84341000
C           3.90490500     12.09655500      9.29096100
C           5.24570400     11.87992300      8.93672200
H           1.87960700     11.37446200      9.07791300
H           4.96423000      9.12589400      7.03434900
H           2.56265900      9.42660600      7.66605800
H           6.03325000     12.57887400      9.25155200
C           3.56228500     13.33148500     10.03968700
H           2.52135900     13.35489900     10.38488200
H           4.20321700     13.49915700     10.91369500
H           3.69824700     14.20721100      9.36419700
N           5.59715800     10.80701400      8.17279500
C           7.00345900     10.63831300      7.73176400
H           7.60564400     10.31499100      8.60978500
H           7.05323000      9.80863600      6.97713300
C           7.61405000     11.90980400      7.10667300
H           7.49244100     12.78224900      7.78487500
H           8.71243500     11.75080100      7.03484000
C           7.07123800     12.24209500      5.72479800
H           7.19451200     11.39162000      5.03040300
H           7.63542300     13.07854200      5.27779200
S           5.30216000     12.70499800      5.75473600
O           5.07160500     13.55969400      4.60048500
O           5.11873800     13.31289100      7.10159500
O           4.64342300     11.34842100      5.70758900
O           5.80774400      9.08893500      5.01917500
H           5.33144400      9.95439900      5.19704700
H           5.47526100      8.80578100      4.17984700
          30
 G =       -0.083120 Gcorr = 0.179212 a.u. Nimag =   0 Frame:     9 Step:    10 Geom:    10
C           4.35436900     10.05585900      7.33659900
C           3.01482500     10.43306100      7.35734100
C           2.58947500     11.45034600      8.20883700
C           3.51105000     12.06019900      9.05793800
C           4.84727400     11.63247400      9.03855500
H           1.55162200     11.78592500      8.18658100
H           4.73084500      9.31512400      6.61323800
H           2.32187700      9.96547500      6.64808400
H           5.60060200     12.11256200      9.67786700
C           3.15256600     13.22197800      9.90938200
H           2.07127100     13.39754400      9.97000900
H           3.53016900     13.13901100     10.93566900
H           3.60458700     14.14024000      9.47005600
N           5.24449500     10.63258500      8.20313900
C           6.67557100     10.24581300      8.11993000
H           6.90540700      9.59735600      8.99513200
H           6.82411400      9.63030500      7.19601800
C           7.65544500     11.43815300      8.07362000
H           7.41346700     12.18174700      8.86361600
H           8.66435200     11.05499700      8.33926900
C           7.72634900     12.13042800      6.72021300
H           8.07581000     11.44802900      5.92943700
H           8.44987600     12.96259700      6.74614600
S           6.10387200     12.80457400      6.20902300
O           6.35924300     13.80755000      5.18582400
O           5.51088500     13.27280200      7.49243000
O           5.41308400     11.55544500      5.74443400
O           3.45828800     10.15860200      4.49464300
H           4.15914700     10.71822800      4.91046200
H           3.43006700     10.46100900      3.59651600
          30
 G =       -0.081817 Gcorr = 0.182655 a.u. Nimag =   0 Frame:    10 Step:    11 Geom:    11
C           3.90430200     10.24252800      7.22955200
C           2.67922700     10.88875600      7.36356600
C           2.54776700     11.95824100      8.24788700
C           3.64296800     12.34909200      9.01536900
C           4.85774100     11.66019300      8.87493800
H           1.60431800     12.50159600      8.31596600
H           4.05267500      9.43284700      6.49683100
H           1.84843900     10.58783100      6.72489800
H           5.74731900     11.96286500      9.44480800
C           3.60380900     13.54125500      9.89866300
H           4.19245900     14.35809200      9.42153100
H           2.59057900     13.93042300     10.05740900
H           4.04639200     13.36283400     10.88614500
N           4.96686500     10.61247100      8.00964100
C           6.27908300      9.95093600      7.80376900
H           6.48998800      9.31679600      8.69331900
H           6.20672200      9.26267100      6.91929400
C           7.44207000     10.93650200      7.56461700
H           7.47217500     11.71437100      8.35791500
H           8.39020200     10.36699000      7.68150100
C           7.42638600     11.59274600      6.19192700
H           7.44492000     10.83684800      5.38585100
H           8.33016400     12.20857600      6.04601000
S           5.96416800     12.66092500      5.94211200
O           6.32072100     13.63408200      4.92146900
O           5.66983800     13.17881400      7.30702400
O           4.92492000     11.64218500      5.54191200
O           5.49523300      9.23591500      4.58552500
H           5.25403700     10.16023000      4.87966600
H           5.34451900      9.24240200      3.65089500
          30
 G =       -0.083551 Gcorr = 0.180855 a.u. Nimag =   0 Frame:    11 Step:    12 Geom:    12
C           3.74664000     10.29108800      7.21005400
C           2.55063000     10.99738900      7.28925800
C           2.43547400     12.07808900      8.16235100
C           3.51548200     12.41966100      8.97373000
C           4.69938400     11.67053200      8.88858200
H           1.51826400     12.66801600      8.18760300
H           3.88845400      9.47039700      6.48329700
H           1.73368800     10.73361000      6.61721500
H           5.57772800     11.93089000      9.49569200
C           3.49878300     13.61825400      9.84902700
H           4.15362700     14.39853500      9.39732700
H           2.50194300     14.06317600      9.95668000
H           3.88306800     13.42276300     10.85743000
N           4.79261300     10.61482600      8.03112100
C           6.07713000      9.88702100      7.88674700
H           6.22868100      9.26713900      8.79825000
H           6.00121700      9.17928500      7.01859800
C           7.29188300     10.81158600      7.66371100
H           7.34365100     11.59451200      8.45126500
H           8.20806800     10.19747400      7.80634600
C           7.33654100     11.45318400      6.28495500
H           7.29928400     10.69053600      5.48640900
H           8.28778500     11.99334700      6.13968000
S           5.96750400     12.63482900      6.01240700
O           6.42987000     13.59266300      5.02005600
O           5.67231000     13.15422300      7.37629800
O           4.86488600     11.70761400      5.56407300
O           5.17508100      9.22793500      4.73404300
H           5.05375500     10.19762100      4.96373200
H           5.00657900      9.18382200      3.80407000
          30
 G =       -0.082933 Gcorr = 0.179065 a.u. Nimag =   0 Frame:    12 Step:    13 Geom:    13
C           4.18262300     10.13228500      7.22735700
C           2.88105200     10.62394700      7.18439900
C           2.49415200     11.64995600      8.04319200
C           3.41311400     12.15459100      8.96173300
C           4.70721800     11.61438500      9.00272100
H           1.49181000     12.07491300      7.97293400
H           4.53642800      9.38340400      6.50167100
H           2.19633300     10.24204300      6.41572000
H           5.46076200     12.01205000      9.69581100
C           3.10455300     13.31906400      9.82895200
H           3.41658000     13.17726700     10.87070000
H           3.65366300     14.20781500      9.44310400
H           2.03951200     13.58251300      9.83769000
N           5.06655300     10.60712800      8.15903500
C           6.46214900     10.10103100      8.14405500
H           6.58725100      9.41788500      9.01408000
H           6.61017600      9.49367800      7.21485500
C           7.53956800     11.20637700      8.18058900
H           7.31625300     11.95208100      8.97417700
H           8.49622300     10.73379100      8.49146400
C           7.74414100     11.91663200      6.85035100
H           8.07513200     11.22202500      6.06224000
H           8.53532000     12.68063100      6.93482100
S           6.21749700     12.74253300      6.27128600
O           6.61673600     13.74780400      5.29745600
O           5.59174200     13.22499600      7.53330900
O           5.45161600     11.57131500      5.72636100
O           3.31370900     10.53407100      4.43762100
H           4.09434700     10.96746600      4.86582400
H           3.33379000     10.85633600      3.54649800
          30
 G =       -0.083111 Gcorr = 0.179221 a.u. Nimag =   0 Frame:    13 Step:    14 Geom:    14
C           4.21629900     10.11735000      7.22817000
C           2.90995900     10.59672100      7.25321800
C           2.55878400     11.61970900      8.13134000
C           3.51889300     12.13219200      9.00175200
C           4.81811300     11.60273200      8.97654300
H           1.55018700     12.03524600      8.11376100
H           4.53934600      9.37006100      6.48595200
H           2.18778100     10.20445400      6.52764300
H           5.60187100     12.00470700      9.63294200
C           3.24561900     13.29399000      9.88420200
H           3.77026600     14.18640000      9.47328600
H           2.18075000     13.55112500      9.94477100
H           3.60865000     13.15328600     10.90945000
N           5.14240700     10.59877900      8.11496400
C           6.53971600     10.10444500      8.02767700
H           6.71262700      9.41620800      8.88541300
H           6.64643800      9.50493200      7.08762100
C           7.60924700     11.21797100      8.01939400
H           7.42035400     11.95584400      8.82901100
H           8.58369500     10.75050500      8.27859800
C           7.74234700     11.93995500      6.68636900
H           8.04243200     11.25461800      5.87806300
H           8.52847500     12.71196400      6.73869200
S           6.18077600     12.75311000      6.18767100
O           6.52085800     13.76251100      5.19590500
O           5.61705700     13.22877700      7.48155300
O           5.39800700     11.57595500      5.68306400
O           3.35299700     10.36208300      4.38626700
H           4.08982100     10.85726500      4.82110000
H           3.35623200     10.68712800      3.49561400
          30
 G =       -0.083113 Gcorr = 0.179219 a.u. Nimag =   0 Frame:    14 Step:    15 Geom:    15
C           4.37203100      9.97981400      7.42285200
C           3.02989100     10.34376200      7.47952000
C           2.62587100     11.39473000      8.29995300
C           3.57252600     12.05258100      9.08301700
C           4.91205000     11.63804500      9.03035700
H           1.58391000     11.71806000      8.30371200
H           4.72893300      9.21065500      6.71949100
H           2.31536100      9.83684600      6.82044700
H           5.68393800     12.15452600      9.61700600
C           3.23375600     13.24875000      9.89401400
H           3.65862500     14.15014900      9.39650500
H           2.15366300     13.41686400      9.98795300
H           3.65075500     13.21626500     10.90781900
N           5.28829000     10.60485400      8.22634600
C           6.71953000     10.22890900      8.10493500
H           6.99087100      9.62439300      8.99949300
H           6.83937400      9.57238300      7.20546300
C           7.68265300     11.42757200      7.96500200
H           7.46289100     12.20453500      8.72896400
H           8.70566600     11.06731700      8.20780400
C           7.69228800     12.05696700      6.57948800
H           8.01775800     11.34192100      5.80747900
H           8.40702600     12.89605300      6.53817500
S           6.04341700     12.69145200      6.10300100
O           6.24731400     13.64982700      5.02683400
O           5.49539800     13.21144500      7.38653300
O           5.34956800     11.41606500      5.72225900
O           3.36550400      9.93932700      4.61783600
H           4.07467700     10.52567800      4.97879700
H           3.29646700     10.20026800      3.70895400
          30
 G =       -0.082940 Gcorr = 0.179058 a.u. Nimag =   0 Frame:    15 Step:    16 Geom:    16
C           4.42826200     10.03286800      7.36894000
C           3.06965400     10.33338300      7.40648700
C           2.59816700     11.32650300      8.26171100
C           3.49502200     11.99106600      9.09645900
C           4.85325000     11.64163800      9.05856500
H           1.54264200     11.60222700      8.25233200
H           4.83625400      9.31416800      6.64115700
H           2.39663100      9.82929000      6.70042700
H           5.58693900     12.16859000      9.68339300
C           3.08151100     13.13250200      9.95054200
H           3.46940400     14.07461400      9.50107600
H           1.99265000     13.24253400     10.02913100
H           3.48056700     13.07626700     10.97052000
N           5.29579400     10.66364400      8.22003100
C           6.74547000     10.36015100      8.11770000
H           7.02627100      9.73465200      8.99476700
H           6.91588700      9.74558800      7.19712600
C           7.65277500     11.60734400      8.04569900
H           7.37897800     12.34329900      8.83253600
H           8.68627300     11.28668900      8.29932200
C           7.66288200     12.28902100      6.68510000
H           8.03775000     11.61956800      5.89496000
H           8.33866600     13.16084700      6.69182400
S           5.99754000     12.86648500      6.19397800
O           6.18109000     13.88014400      5.16578200
O           5.39488100     13.30330900      7.48357700
O           5.37395800     11.57827800      5.73903400
O           3.32349400     10.20089200      4.63980400
H           4.06143700     10.75611700      4.99714400
H           3.23590500     10.48833400      3.74088500
          30
 G =       -0.083554 Gcorr = 0.180853 a.u. Nimag =   0 Frame:    16 Step:    17 Geom:    17
C           4.03216100     10.15716800      7.30219000
C           2.77138100     10.73289800      7.42246900
C           2.58289500     11.83003200      8.26168500
C           3.65895900     12.31960800      8.99909400
C           4.91225100     11.69997200      8.87483500
H           1.60879100     12.31787200      8.31687100
H           4.22605000      9.32704100      6.59859700
H           1.95511000     10.35505200      6.80636800
H           5.78667700     12.07894700      9.42228800
C           3.55531200     13.54442100      9.83109100
H           4.00734100     13.43220200     10.82399300
H           4.09857600     14.37099900      9.31801500
H           2.52254100     13.88465900      9.97569200
N           5.07695500     10.62581000      8.05182100
C           6.42464800     10.03561300      7.86209200
H           6.69053500      9.47463500      8.78544400
H           6.38233400      9.28805300      7.02568200
C           7.51687200     11.07598500      7.53799300
H           7.52273500     11.89230800      8.29267200
H           8.50135700     10.57120800      7.65104400
C           7.41868900     11.66012300      6.13668100
H           7.42373900     10.86504900      5.36945200
H           8.29604300     12.29281300      5.91836900
S           5.91591900     12.67512400      5.89932300
O           6.21857300     13.63496700      4.84899500
O           5.63672300     13.21596600      7.25825700
O           4.89967700     11.61707400      5.54681300
O           5.44128000      9.15278500      4.78998200
H           5.22363000     10.11200300      4.98922100
H           5.23225100      9.04962900      3.87297700
          30
 G =       -0.083109 Gcorr = 0.179224 a.u. Nimag =   0 Frame:    17 Step:    18 Geom:    18
C           4.34760100     10.09698700      7.26243600
C           3.02049100     10.51597100      7.24456300
C           2.60050000     11.53974600      8.09091500
C           3.51351300     12.11407500      8.97337300
C           4.83569100     11.64469200      8.99209300
H           1.57479700     11.90786800      8.03920200
H           4.72339200      9.35022600      6.54493800
H           2.33588300     10.07564500      6.51018400
H           5.58316400     12.09600000      9.65864200
C           3.16491300     13.28025700      9.82291400
H           3.65847700     14.18715300      9.40524300
H           2.08819800     13.48905700      9.85165200
H           3.50765900     13.17804900     10.85962800
N           5.22753900     10.63896300      8.16115600
C           6.64764100     10.20778500      8.11980400
H           6.82921300      9.54617100      8.99650000
H           6.80595200      9.59445500      7.19610000
C           7.66537700     11.36891200      8.11396300
H           7.42188800     12.11416600      8.90193000
H           8.65285800     10.95225500      8.40813200
C           7.80064300     12.06805900      6.76904600
H           8.15309200     11.38045500      5.98410700
H           8.54891000     12.87659100      6.82415200
S           6.21713600     12.79708800      6.21278200
O           6.53643800     13.79985600      5.20745600
O           5.59827100     13.27355100      7.48090700
O           5.50296500     11.57418500      5.71518900
O           3.54473800     10.24615600      4.39618200
H           4.24909400     10.78131400      4.83723200
H           3.55397200     10.55432600      3.49958300
          30
 G =       -0.083549 Gcorr = 0.180857 a.u. Nimag =   0 Frame:    18 Step:    19 Geom:    19
C           3.86303800     10.35987800      7.21268600
C           2.66254000     11.04230500      7.38194500
C           2.55629400     12.03605700      8.35386500
C           3.65048200     12.31322300      9.17078400
C           4.83925300     11.58876200      8.99166700
H           1.63439500     12.61069500      8.45287200
H           3.99654000      9.61142500      6.41034000
H           1.83376900     10.83287200      6.70524400
H           5.72818700     11.80189100      9.60178100
C           3.64160000     13.42518900     10.15387900
H           2.64328800     13.84707700     10.32290900
H           4.04923100     13.14131000     11.13164100
H           4.27945500     14.25126300      9.76331800
N           4.92366900     10.61816700      8.03817600
C           6.21159200      9.92180000      7.79968700
H           6.38904600      9.22173800      8.64613700
H           6.12325000      9.29695200      6.87121200
C           7.41233300     10.87699800      7.63816100
H           7.47383200     11.58414400      8.49377300
H           8.33719500     10.26286800      7.70406000
C           7.42073200     11.64398600      6.32429000
H           7.37324600     10.95822400      5.45927200
H           8.36340400     12.20608900      6.20982700
S           6.03482800     12.82992600      6.19133000
O           6.46614000     13.88072800      5.28260200
O           5.76464100     13.21743700      7.60340600
O           4.93153900     11.93548700      5.68218300
O           5.24670300      9.54689000      4.61947800
H           5.12126400     10.48973700      4.94040800
H           5.05851500      9.58689700      3.69307800
          30
 G =       -0.080116 Gcorr = 0.177604 a.u. Nimag =   0 Frame:    19 Step:    20 Geom:    20
C           4.27244400     10.83623600      7.21450500
C           3.00105900     11.44995800      7.19229000
C           2.57449400     12.17881700      8.27818100
C           3.40544600     12.27770400      9.41853000
C           4.64724200     11.66695900      9.40683800
H           1.61255700     12.69340000      8.26720000
H           4.62855200     10.21300100      6.35866200
H           2.41708200     11.36414800      6.26571600
H           5.33733100     11.74487400     10.25035500
C           2.95848000     13.05703300     10.60175900
H           3.61324400     12.93867400     11.47568700
H           2.93130800     14.13760300     10.37278400
H           1.94430700     12.77333300     10.92377200
N           5.06048700     10.94419100      8.31224700
C           6.45314000     10.43980500      8.26501400
H           6.67742500      9.90750400      9.21363400
H           6.54344100      9.68411000      7.44236600
C           7.45677400     11.59324400      8.03311700
H           7.03277300     12.54984300      8.41470400
H           8.35889400     11.40451900      8.65014300
C           7.86985300     11.76276700      6.57803400
H           8.35945900     10.85537200      6.18723600
H           8.61882900     12.56916400      6.48391500
S           6.46696900     12.16783700      5.47641200
O           6.96675000     13.11252400      4.49112600
O           5.40387000     12.64336700      6.41445700
O           6.04741200     10.81825400      4.97132100
O           3.49577400     10.18126200      4.22809400
H           4.44484200     10.37305900      4.43908100
H           3.40975600     10.45144900      3.32283200
          30
 G =       -0.083116 Gcorr = 0.179216 a.u. Nimag =   0 Frame:    20 Step:    21 Geom:    21
C           4.17002400     10.19965800      7.26295200
C           2.89768200     10.76288400      7.23109400
C           2.59569900     11.85103900      8.04689300
C           3.56848200     12.34546100      8.91374100
C           4.83026700     11.73265600      8.94797000
H           1.61724600     12.32938100      7.98306300
H           4.45921000      9.39548600      6.56770800
H           2.16707100     10.38038700      6.50880100
H           5.62447400     12.11708900      9.60231900
C           3.35321200     13.56714900      9.72879800
H           3.94570100     14.40060000      9.28740900
H           2.30683100     13.89647900      9.74794700
H           3.68208600     13.45651700     10.76915200
N           5.10641800     10.66612300      8.14689200
C           6.46975100     10.07864100      8.11989600
H           6.57814300      9.42615100      9.01532600
H           6.55730700      9.42551200      7.21419300
C           7.61028800     11.11873000      8.08254900
H           7.45251300     11.90854600      8.84861700
H           8.54577700     10.60336800      8.38992700
C           7.82029200     11.76009900      6.71855100
H           8.09314500     11.01569400      5.95400400
H           8.65372500     12.48187000      6.75207500
S           6.32671200     12.64431800      6.13915700
O           6.75388100     13.57590800      5.10573200
O           5.76699900     13.22301900      7.39212900
O           5.47997500     11.49474000      5.67597000
O           3.38480100     10.35575300      4.39164700
H           4.14482700     10.82161100      4.81885200
H           3.42747000     10.63515200      3.48664500
