%mem=50GB
%nprocshared=24
#p M052X/6-31G*

Title Card Required

0 1
 C                 -2.28335500   -0.86299400   -0.95430600
 H                 -2.98544800   -1.50074300   -0.42100000
 H                 -2.82160100   -0.16171500   -1.58870100
 H                 -1.60550300   -1.46743900   -1.55172500
 C                 -2.36637400    0.71154200    0.90984700
 H                 -3.03154500    0.04312500    1.45263700
 H                 -1.76058800    1.27618800    1.61249700
 H                 -2.94448900    1.39245000    0.28800600
 C                 -0.71507000   -1.10004500    0.88541200
 H                 -0.04742800   -1.66549300    0.23594400
 H                 -0.10594500   -0.57889000    1.61603100
 H                 -1.45557400   -1.72901700    1.37628300
 C                 -0.54005300    0.82631400   -0.75986900
 H                 -1.22144800    1.49721600   -1.28352700
 H                 -0.02892500    0.16698900   -1.46205800
 C                  0.51227400    1.58906800    0.05609600
 H                  0.36145700    1.44755200    1.12942300
 H                  0.39099300    2.65948900   -0.12747700
 C                  1.93983100    1.12709200   -0.29321500
 H                  2.65065500    1.65224600    0.34478100
 H                  2.15370700    1.35782400   -1.33948900
 N                 -1.46672100   -0.09940700    0.03925100
 C                  2.01405100   -0.39973800   -0.05194500
 O                  2.32386700   -0.76653400    1.09704500
 O                  1.59499700   -1.11363700   -1.01060700

