          43
 Energy =    -1467.50011240 a.u.  Frame:     1 Step:     1 Geom:     1
C          10.58054300      9.73254900     11.27425500
C          11.66635600      9.10047700     10.64749500
C          11.42004400      7.97641100      9.83677400
C          10.11248700      7.52190000      9.67314200
C           9.05356300      8.17688700     10.31343400
H          12.24291100      7.49329200      9.30413200
H          10.72851200     10.64748500     11.89323200
H           9.89253900      6.68149800      9.00989100
H           7.99664600      7.84678200     10.16594200
C          13.03205400      9.66464900     10.79349200
H          13.17950900     10.21494000     11.73160600
H          13.82248000      8.90723100     10.72295400
H          13.21196300     10.39421900      9.96861000
N           9.29949400      9.27184100     11.09972000
C           8.16205400      9.98266400     11.76936200
H           7.54468000      9.22564700     12.30751200
H           8.57342700     10.68212200     12.54992200
C           7.28588700     10.75426600     10.77420600
H           7.21832300     10.20519900      9.79823800
H           6.24325500     10.76342400     11.15765500
C           7.74814800     12.18817200     10.51953000
H           6.97645300     12.73577300      9.93892500
H           7.86569900     12.74502600     11.47200800
C           9.05117300     12.19383800      9.74673700
O           9.06189500     11.83933200      8.53365000
O          10.12426500     12.50889100     10.34396500
P          10.71592500     10.64478700      7.54229200
O           9.75658600      9.58377100      7.95371500
O          11.71714000     11.32728600      8.62821900
H          11.31217500     12.01908300      9.31766200
O          11.89271900      9.94998400      6.61027000
H          12.49663000     10.57504400      6.13762200
O          10.28335400     11.81086000      6.47004500
H           9.50412700     12.39277100      6.73155600
O          10.00638800     12.17347000     12.94013500
H          10.08559800     12.60956100     12.04115100
H          10.45224900     12.73708600     13.55517600
O           6.24104300      8.19764800      9.57266200
H           6.51423200      8.88014100      8.86657000
H           5.64678200      7.60221000      9.13707400
O           7.27635200      9.67993900      7.68108200
H           7.73654600     10.49324300      8.02234800
H           8.03780600      9.11862700      7.39605500
          43
 Energy =    -1467.53590320 a.u.  Frame:     2 Step:     2 Geom:     2
C          10.29233300      9.21170600     11.37830700
C          11.36597300      8.60613100     10.72040600
C          11.10897700      7.73037100      9.65700600
C           9.78622300      7.46228900      9.30358800
C           8.74282300      8.07462500      9.99144100
H          11.93352000      7.27990200      9.09603800
H          10.46317700      9.93625700     12.19617900
H           9.55599200      6.81822400      8.44951500
H           7.68906100      7.90403000      9.70907200
C          12.74958100      8.95443900     11.12773800
H          12.91727200     10.04904100     11.05783800
H          12.97280700      8.65576600     12.16008400
H          13.51070100      8.50551400     10.47144900
N           9.00952400      8.93920700     11.01186600
C           7.88169000      9.59481700     11.71406800
H           7.19998800      8.80167700     12.09759300
H           8.26595500     10.14145800     12.61378900
C           7.11570200     10.56600000     10.80079600
H           7.11852900     10.21182900      9.74237800
H           6.04470400     10.56489300     11.09149900
C           7.65571600     11.99251100     10.86666900
H           6.90810900     12.70417700     10.45975200
H           7.84915800     12.31317700     11.90732900
C           8.93294000     12.08652500     10.03512700
O           8.81319400     12.39194600      8.83423800
O          10.01812500     11.82593800     10.60437500
P          11.47527700     10.56461800      7.63705800
O          10.79036700      9.27324300      7.78426400
O          12.10038600     11.15352900      8.97470100
H          11.31124300     11.47823100      9.60703700
O          12.74793600     10.39819800      6.69219200
H          13.18599800     11.33053700      6.60402400
O          10.65180600     11.73839000      6.96910900
H           9.94003700     12.08261900      7.68899800
O           9.96553600     11.73468400     13.28141900
H           9.99600900     11.85150500     12.29838300
H          10.50111100     12.43506400     13.63132900
O           6.68613100     11.35145500      7.51999600
H           6.74669700     11.72042100      6.64311400
H           7.41378400     11.79136500      8.02008000
O           7.75967800      8.77192400      7.71345900
H           7.31189500      9.61889800      7.55866100
H           8.68434900      8.94290000      7.50805500
          43
 Energy =    -1467.54193320 a.u.  Frame:     3 Step:     3 Geom:     3
C          10.42250100      9.63877300     11.34318100
C          11.39276500      8.89941300     10.66077000
C          10.98631300      7.90035100      9.76691500
C           9.62196600      7.66354100      9.59152400
C           8.68752700      8.40980900     10.30141900
H          11.72651700      7.32334500      9.20197600
H          10.71208100     10.45627200     12.03066100
H           9.27973400      6.92181600      8.86573100
H           7.60278100      8.24132300     10.18319800
C          12.82513100      9.22904700     10.86402800
H          13.47560500      8.76422500     10.10502400
H          13.00347200     10.31794600     10.76097600
H          13.18898400      8.92667800     11.85430900
N           9.09745000      9.38253100     11.16442600
C           8.08587800     10.16841400     11.91128300
H           7.45459500      9.45717600     12.49395500
H           8.60078600     10.82906500     12.65584700
C           7.20214100     11.02210000     10.98808100
H           6.92864500     10.46435200     10.06405500
H           6.23197000     11.20286900     11.49770200
C           7.83908300     12.35696700     10.61382000
H           7.08823100     13.02470000     10.14546200
H           8.21649100     12.89498500     11.50347000
C           8.96759100     12.11328600      9.61336500
O           8.66017900     11.98974000      8.41622400
O          10.13009000     12.01358200     10.07718400
P          11.40494200     10.28911400      7.27542000
O          10.71446700      9.03072300      7.59760300
O          12.10723100     10.99854200      8.51199300
H          11.35348400     11.45337300      9.11079900
O          12.61657600     10.01245800      6.27922800
H          13.05910400     10.92597500      6.07968100
O          10.54440400     11.40142800      6.55157000
H           9.78424700     11.71488300      7.24010500
O          10.42734600     12.45856700     12.69381400
H          10.32667600     12.38117900     11.70920300
H          11.02071000     13.18624800     12.82611500
O           5.57326700      8.46558600      9.43387600
H           6.23384400      8.80478300      8.80326300
H           4.82008700      8.23317300      8.90086300
O           7.65926100      9.44023300      7.88257300
H           7.85049900     10.39427700      7.98101400
H           8.50536800      9.07717000      7.59831300
          43
 Energy =    -1467.54168470 a.u.  Frame:     4 Step:     4 Geom:     4
C          10.23438500      9.67026900     11.33207400
C          11.37171900      9.19256300     10.67565100
C          11.24383500      8.11566200      9.78830700
C           9.98007700      7.56759000      9.56646000
C           8.86786400      8.08640700     10.22231800
H          12.12000900      7.72269800      9.26012000
H          10.29953900     10.51669400     12.04042100
H           9.85171200      6.76302000      8.83788200
H           7.85618500      7.68165500     10.05120800
C          12.66718800      9.87902200     10.89551700
H          13.14926700      9.57900800     11.83494000
H          13.38047800      9.70498700     10.07137300
H          12.53250200     10.98021400     10.93502400
N           9.01002400      9.12096900     11.09812300
C           7.82071900      9.68450400     11.77824600
H           7.06676000      8.86922800     11.92561300
H           8.11590100     10.04360600     12.79113500
C           7.16955800     10.82465600     10.97795300
H           6.87896000     10.47192800      9.96215700
H           6.20197100     11.07161900     11.46513700
C           8.02740400     12.07935400     10.86329300
H           7.38936800     12.96445800     10.66325100
H           8.56334100     12.30333500     11.80385800
C           9.00627100     11.94916700      9.69422100
O           8.53222000     11.76832700      8.55936400
O          10.22849400     12.01090100      9.96351500
P          11.25758100     10.27950000      7.08089100
O          10.70155900      8.98392100      7.49944300
O          12.07790900     11.04018500      8.20986800
H          11.38236400     11.48008100      8.88340500
O          12.33056100     10.07262300      5.92249300
H          12.68313800     11.01061100      5.66514000
O          10.23373900     11.32788700      6.48380500
H           9.54240100     11.58354500      7.26123100
O          11.01432800     12.53956700     12.46823000
H          10.74690200     12.41950900     11.52434700
H          11.47510900     13.36790700     12.49083300
O           5.77025500      8.23568900      9.85570100
H           6.33939500      8.57405800      9.13908700
H           4.96919700      7.95403500      9.42448300
O           7.63190400      9.17570000      7.99480000
H           7.80663300     10.13212300      8.11390700
H           8.46129000      8.85123500      7.62519800
          43
 Energy =    -1467.53841640 a.u.  Frame:     5 Step:     5 Geom:     5
C          10.13335600      9.32207100     11.43453400
C          11.20800800      8.67606700     10.81680100
C          10.95151800      7.73840700      9.80783200
C           9.62851500      7.43924800      9.47903400
C           8.58472600      8.07979000     10.13849700
H          11.77676700      7.25873800      9.27176200
H          10.30308300     10.09961300     12.20269600
H           9.39831900      6.74193700      8.66737200
H           7.53038200      7.86025900      9.90913000
C          12.59122400      9.04434100     11.20806300
H          13.34241600      8.68666900     10.48499800
H          12.72243200     10.14443700     11.23293000
H          12.86248500      8.65718200     12.19865300
N           8.85152200      9.02090400     11.09018400
C           7.72103900      9.73845200     11.72346200
H           7.01945900      8.98576800     12.14940800
H           8.09576300     10.34312200     12.58925100
C           6.99189300     10.65056800     10.72219500
H           7.02928000     10.22778700      9.68924800
H           5.91158400     10.67280000     10.97448000
C           7.53846600     12.07619900     10.71345400
H           6.80619400     12.76372700     10.24203800
H           7.70490000     12.46077600     11.73698600
C           8.83907800     12.11510900      9.91398000
O           8.75517200     12.35092800      8.69466600
O           9.90647400     11.88362800     10.52754200
P          11.45366200     10.47073500      7.67116600
O          10.75668500      9.18896400      7.84520600
O          12.03730000     11.10410300      9.00770100
H          11.23139300     11.47066400      9.59270400
O          12.75734600     10.26058900      6.77869900
H          13.20205500     11.18693000      6.66572000
O          10.66309900     11.62266900      6.93075000
H           9.92216000     11.99288200      7.60767400
O           9.78910500     11.95561800     13.20268000
H           9.84441400     12.01434600     12.21590100
H          10.31561400     12.67604300     13.52446100
O           6.65509100     11.24134700      7.39348200
H           6.71923400     11.57524800      6.50301600
H           7.37494500     11.70615100      7.88076600
O           7.75662200      8.67020700      7.66900100
H           7.31625900      9.51371300      7.48807100
H           8.69097300      8.84127500      7.52382300
          43
 Energy =    -1467.54425190 a.u.  Frame:     6 Step:     6 Geom:     6
C          10.24528200      9.33918300     11.37485600
C          11.04805700      8.54318500     10.55450700
C          10.43858500      7.70916100      9.60716700
C           9.04885500      7.68938100      9.51742900
C           8.27978900      8.47836600     10.36998000
H          11.04926100      7.08838300      8.94121700
H          10.69600500     10.03625600     12.10025900
H           8.54533800      7.08193600      8.75601500
H           7.17732500      8.48530600     10.31107300
C          12.52342400      8.63282400     10.68170700
H          12.89011600      8.21768300     11.62878900
H          13.04898200      8.11965700      9.85912100
H          12.86740000      9.68551300     10.62358700
N           8.88554000      9.28675900     11.28466800
C           8.05988200     10.11823800     12.19347800
H           7.43680900      9.43617500     12.81625400
H           8.72899700     10.67586000     12.90041800
C           7.16805200     11.12042000     11.44367900
H           6.70718700     10.65710600     10.54088100
H           6.31048900     11.38654600     12.09644500
C           7.90926500     12.39325400     11.04366600
H           7.20155800     13.13380700     10.61926700
H           8.37982800     12.88160300     11.91863500
C           8.96295900     12.06161700      9.99006500
O           8.60434400     12.01326900      8.80228800
O          10.12314000     11.81537900     10.40494000
P          11.36265300     10.43283500      7.38274600
O          10.86671900      9.05700500      7.54785300
O          12.03723100     11.06756700      8.66747400
H          11.27194700     11.39582300      9.33807000
O          12.54106900     10.43835300      6.30964900
H          12.87322300     11.41385800      6.22751800
O          10.32243300     11.47636300      6.81363100
H           9.63471400     11.73515300      7.59753200
O          10.58882500     12.24854700     13.02445800
H          10.44258600     12.15039600     12.05296400
H          11.24709100     12.92682800     13.10655100
O           6.98819500      9.70402500      8.52606400
H           7.34890000      9.19430900      7.78858800
H           7.47202100     10.54510900      8.51009800
O           8.30417700      8.19599300      6.52210300
H           8.23419700      8.63033200      5.67186800
H           9.19757000      8.43066200      6.83245400
          43
 Energy =    -1467.54480770 a.u.  Frame:     7 Step:     7 Geom:     7
C           9.94689000      9.44771700     11.57238900
C          11.18635400      9.00296400     11.09723100
C          11.22035800      8.11747100     10.01540700
C          10.02098300      7.72234700      9.42174000
C           8.81088000      8.21900900      9.89638600
H          12.17965700      7.77188200      9.61390200
H           9.87969600     10.14263600     12.42453700
H          10.02903200      7.06714400      8.54267100
H           7.85543500      7.96316300      9.41351100
C          12.42817900      9.54444900     11.69630000
H          13.24461500      8.81350300     11.73819500
H          12.78847400     10.39956300     11.08194200
H          12.28495000      9.95580200     12.70911900
N           8.78964900      9.05900900     10.97039700
C           7.50499000      9.60110800     11.46950100
H           6.70169600      8.83345100     11.32164900
H           7.58445200      9.77622000     12.56664500
C           7.09360300     10.89878100     10.75386500
H           6.88922200     10.69871000      9.67698000
H           6.10945000     11.21412700     11.16181100
C           8.09976900     12.03737900     10.88140300
H           7.60298300     13.01249400     10.70314900
H           8.53700200     12.10086600     11.89393700
C           9.19537000     11.86835800      9.82643000
O           8.87652100     11.97065400      8.63120400
O          10.34553200     11.58929900     10.24331000
P          11.42869500     10.16713500      7.14017500
O          10.52173600      9.03070800      6.94677600
O          12.04650400     10.25307300      8.60625000
H          11.42050000     10.84970900      9.21807500
O          12.71269500     10.01824600      6.21151000
H          13.31082400     10.84374200      6.38275900
O          10.87388000     11.61033600      6.80176500
H          10.08131300     11.82861300      7.48409000
O          11.07164400     12.19605700     12.77657800
H          10.84560000     12.00560200     11.83791100
H          11.48911500     13.04810900     12.75981100
O           5.56548300      8.63476200      9.15258800
H           6.22490000      9.00626100      8.53779900
H           4.78471500      8.50229900      8.62412800
O           7.59527100      9.69270100      7.54973300
H           7.91282300     10.56856900      7.84512200
H           8.37858900      9.30599500      7.14133500
          43
 Energy =    -1467.51907440 a.u.  Frame:     8 Step:     8 Geom:     8
C          10.31551900      9.33352200     11.32341300
C          11.38854900      8.65693000     10.72175300
C          11.11011900      7.59388600      9.84245400
C           9.78440100      7.23230500      9.59771800
C           8.73946800      7.93378600     10.20752400
H          11.92326700      7.08316200      9.32036400
H          10.49080600     10.20588100     11.99417100
H           9.54565000      6.43891700      8.88308800
H           7.68485100      7.71320000      9.96203900
C          12.77697800      9.11913100     10.97409900
H          13.53761700      8.37978100     10.69255900
H          12.98449600     10.02865200     10.36220300
H          12.95604900      9.39788000     12.02057900
N           9.01806700      8.97219700     11.06276400
C           7.89474900      9.72399900     11.71033200
H           7.23283700      8.99111500     12.22407700
H           8.31626500     10.38856600     12.51675500
C           7.09458600     10.55700300     10.70143400
H           7.16060300     10.10816600      9.66918700
H           6.01802000     10.49763300     10.96001300
C           7.52145900     12.02405100     10.65264600
H           6.70492000     12.64135700     10.22268700
H           7.70114700     12.42499700     11.67153300
C           8.76793200     12.18586700      9.79996700
O           8.63232900     12.36312800      8.56365800
O           9.90168800     12.12165800     10.37055400
P          11.16072300     10.51930600      7.61590000
O          10.37892200      9.29078100      7.88138600
O          11.85656800     11.22203800      8.90725600
H          11.20329000     11.77006800      9.56287800
O          12.45126100     10.25304300      6.64211000
H          12.92024700     11.06531500      6.30712900
O          10.39013200     11.73321300      6.86380300
H           9.77963300     12.35978000      7.48841600
O           9.82069500     11.77013300     12.99066500
H           9.92267900     12.16153400     12.07525600
H          10.27485300     12.34891400     13.58641400
O           7.24957600     11.17345700      6.77640500
H           8.13724100     11.29290900      6.41224100
H           7.21862800     11.77729500      7.54669200
O           7.53508100      8.95393000      8.11125900
H           7.07880400      9.54445200      7.46497800
H           8.47932000      8.99707800      7.84966100
