          41
 Energy =     -0.63668400 a.u.  #Cluster:    1
C          13.59510200      4.40398300      7.59377500
C          13.22971600      3.06120200      7.55948500
C          13.22093300      3.84520600      5.43744100
N          13.58213700      4.87551300      6.27239700
H          13.80742000      5.03884300      8.44374200
H          13.08495600      2.37381700      8.37834600
H          13.08629500      3.90415400      4.34143100
C          13.79448200      6.26749200      5.86823000
H          13.06793900      6.92395300      6.42813900
H          14.81881700      6.60363100      6.09324400
H          13.59263900      6.41280700      4.78533700
N          13.00632500      2.72050200      6.21610200
C          12.44253600      1.44010900      5.72243800
H          12.94561700      0.60274000      6.25422300
H          12.69026100      1.33924500      4.63198100
C          10.91943700      1.39132600      5.93268100
H          10.63735400      0.41447200      6.37179800
H          10.60564800      2.15397100      6.69863000
C          10.12061500      1.61516100      4.64628300
H           9.03390400      1.61576700      4.87657700
H          10.28112300      0.78593700      3.92749900
C          10.50744300      2.92509800      3.99395300
O          11.56725100      2.98606200      3.30693100
O           9.79234000      3.95833100      4.18011200
P          10.51644800      6.09563700      4.10693100
O          10.27469100      5.92265800      5.57246900
O          10.85502900      7.69361900      3.86377600
H          10.79495900      8.02350300      2.93350800
O          11.87696600      5.47879500      3.46914700
H          11.80992900      4.50729400      2.99186400
O           9.30810700      5.98096400      3.00618900
H           8.80003200      5.10864300      2.98527100
O           8.30489500      4.48466300      6.50863100
H           8.52132400      5.42880800      6.39687000
H           8.59578500      4.07229100      5.66834700
O          11.49393500      6.70761000      7.70021100
H          10.88787100      7.07150500      7.03012300
H          11.17453600      5.79066500      7.83164100
O          10.52281400      4.00211800      7.52261100
H          10.52602400      4.42894300      6.62600600
H           9.56639200      4.01295800      7.76563300
          41
 Energy =     -0.63116200 a.u.  #Cluster:    2
C          13.10842900      5.34170100      6.95829900
C          12.46881800      4.15509600      7.30382800
C          13.45700900      3.85232400      5.30500100
N          13.72524400      5.12754500      5.72685100
H          13.12368500      6.29274600      7.46678700
H          11.87249200      3.91655700      8.17291100
H          13.73764900      3.41923200      4.34550700
C          14.47407900      6.11072900      4.96592200
H          15.54955000      6.05881700      5.20800900
H          14.33693500      5.95903500      3.87275700
H          14.10594400      7.13906400      5.17613600
N          12.70425200      3.24514900      6.27391900
C          12.20003800      1.87223500      6.21544400
H          12.22657900      1.44345100      7.25080200
H          12.88520700      1.25604900      5.59027300
C          10.76588200      1.81066300      5.66685200
H          10.27680900      0.89500700      6.06168700
H          10.15153800      2.64022800      6.09005500
C          10.70227600      1.83348400      4.14169100
H           9.76488600      1.35780400      3.78826400
H          11.52777100      1.27068800      3.67744700
C          10.72474600      3.28710800      3.67455400
O          11.83334500      3.81264300      3.44709300
O           9.62200900      3.87008800      3.58895300
P          10.76670400      6.90327800      4.70850800
O          10.97981700      6.49623500      6.10373900
O          10.78171100      8.49460500      4.60827000
H          10.57868200      8.73990900      3.62528800
O          11.93614100      6.47599900      3.71955600
H          11.85592300      5.42789000      3.51126200
O           9.41048600      6.48497500      4.01919900
H           9.48426800      5.44076900      3.75065800
O           7.79517200      3.62220100      5.57695700
H           7.19353200      4.32908500      5.34863300
H           8.43746000      3.61160700      4.82700600
O           9.38717200      4.43282400      7.67859100
H           9.88670800      5.14753200      7.27034400
H           8.74350300      4.16922200      6.99040200
O          10.35786800      2.03432200      8.63712600
H           9.73512000      1.75888700      9.30148800
H          10.00458200      2.88321900      8.30393600
          41
 Energy =     -0.63094500 a.u.  #Cluster:    3
C          13.58744600      3.74939600      7.65366100
C          13.29909200      2.48056600      7.16407700
C          12.86356200      3.97541200      5.53553200
N          13.32539400      4.65527900      6.62559600
H          13.92377700      4.04828900      8.62829200
H          13.33839100      1.52350400      7.65938100
H          12.53786600      4.41043200      4.57707400
C          13.40937300      6.09852200      6.74199600
H          13.54704400      6.57953800      5.74834100
H          12.46158400      6.50518300      7.16806200
H          14.24342000      6.40034800      7.39631600
N          12.86597000      2.63849600      5.84805200
C          12.39394600      1.55903100      4.97875700
H          13.00781800      0.65131200      5.17410100
H          12.56925000      1.85114800      3.90905400
C          10.89906200      1.26611000      5.21484700
H          10.74880300      0.17811200      5.35224600
H          10.55817200      1.72104400      6.17374500
C          10.02554300      1.77141000      4.06868700
H           8.96266100      1.51805200      4.24917000
H          10.30260500      1.30398500      3.10689800
C          10.17205500      3.28712700      3.96327200
O          11.13639000      3.72396200      3.30165800
O           9.36629300      3.99461900      4.60462800
P          10.62344500      7.19556700      3.87250000
O          11.33632200      7.40162700      5.14284100
O          10.40736900      8.60339600      3.15942500
H           9.93254000      8.42061400      2.26033300
O          11.41279800      6.34653300      2.79744400
H          11.24090500      5.30304300      2.96056800
O           9.16053600      6.60926900      4.00003700
H           9.21732100      5.56261300      4.22599000
O          10.64997300      4.24685800      7.04335100
H          10.41715900      5.13124500      7.36368900
H          10.12632000      4.13658700      6.22519300
O          10.04195000      6.90016500      7.67714400
H          10.45930100      7.20328400      6.84701500
H           9.11040000      7.07997100      7.54157900
O          11.11017600      1.99491300      8.60351400
H          10.94023800      2.80850000      8.09376200
H          10.39775000      1.94493700      9.23218100
          41
 Energy =     -0.63085900 a.u.  #Cluster:    4
C          12.86360300      5.20497300      6.74971300
C          12.31918800      3.99656400      7.17657700
C          13.34330500      3.64414300      5.20422100
N          13.49403000      4.96289200      5.53260900
H          12.82141000      6.18155200      7.21041200
H          11.73071800      3.78117600      8.05931900
H          13.66196100      3.17594700      4.27689200
C          14.15114100      5.94813600      4.69437500
H          13.87037800      6.98046600      5.00257200
H          15.24760900      5.84425300      4.74406000
H          13.82064000      5.84505700      3.63373200
N          12.64076800      3.03921900      6.21662600
C          12.27054700      1.62402000      6.24022400
H          12.19455600      1.29508900      7.31313700
H          13.08571700      1.02822800      5.77090600
C          10.93121200      1.34535600      5.53769300
H          10.68876900      0.27129500      5.67693000
H          10.10304100      1.88244600      6.05735200
C          10.91720100      1.70103600      4.05551500
H          10.06948000      1.19793100      3.54718400
H          11.82946800      1.36426500      3.53677900
C          10.72896500      3.20976200      3.88793500
O          11.67899400      3.84433000      3.37659700
O           9.66823700      3.70826200      4.30911200
P          10.60366200      7.06622600      4.21807600
O          11.33812400      7.14929600      5.49407200
O          10.25445500      8.54202400      3.72800200
H           9.75453200      8.45073200      2.82746200
O          11.43910700      6.45849600      3.02200200
H          11.48951000      5.38195100      3.13433300
O           9.20547500      6.33744200      4.27367800
H           9.36948700      5.27208600      4.24357400
O           9.11973500      3.68178800      7.09934200
H           9.49525500      4.52687300      7.38755300
H           9.20527100      3.68723700      6.12781900
O          10.34860200      6.05780100      7.93106500
H          10.64240600      6.44622600      7.08131700
H           9.63881400      6.63336700      8.21632900
O          10.43314100      1.77113200      8.54954700
H           9.92401100      2.42618900      8.02333700
H           9.86749300      1.55473800      9.28202300
          41
 Energy =     -0.63029500 a.u.  #Cluster:    5
C          12.96796300      3.96903800      7.91560900
C          12.78531900      2.67714100      7.43465300
C          12.90828500      4.07390500      5.65664600
N          13.05301200      4.81987800      6.80560300
H          13.00218500      4.34106400      8.94243200
H          12.65995800      1.75705500      7.98176700
H          12.86849600      4.47425100      4.61953300
C          13.18800300      6.27775500      6.86600900
H          13.54864900      6.60059100      7.86572600
H          13.85833600      6.66126200      6.07958900
H          12.18084200      6.75568900      6.72686100
N          12.75916500      2.75149200      6.03201400
C          12.48642500      1.62015200      5.11641600
H          13.14770600      0.76939700      5.39329200
H          12.77084500      1.93022200      4.07326000
C          11.00414400      1.21001700      5.16842400
H          10.91536100      0.14535600      5.45640300
H          10.46589900      1.78155900      5.97182300
C          10.28739200      1.44325200      3.83544100
H           9.24345100      1.06676200      3.89210900
H          10.77260100      0.88463800      3.00974600
C          10.26994300      2.92385900      3.52247000
O          11.39525200      3.37249100      3.02360200
O           9.30133500      3.65009000      3.76208500
P          10.61423200      6.52390700      4.24896600
O          10.45166600      6.24058400      5.72127800
O          10.85134400      8.13243500      4.01893500
H          10.67591000      8.47411800      3.10271200
O          11.78556900      5.73935900      3.58253100
H          11.49496900      4.58459500      2.98754100
O           9.27563800      6.29392900      3.33527200
H           8.89788900      5.34161700      3.30506900
O           9.70397100      3.72440600      6.50688700
H          10.18418600      4.55407700      6.25749000
H           8.98092800      3.66835900      5.86429000
O          12.09306800      6.12964600      9.51368200
H          11.88056400      6.48052400     10.36813900
H          11.23540300      6.17218500      8.98556900
O           9.82445800      6.29738300      8.12246200
H           9.65321400      5.44204200      7.67814300
H           9.91645400      6.93392300      7.37952500
          41
 Energy =     -0.62992900 a.u.  #Cluster:    6
C          13.02374900      4.86873700      6.81702000
C          12.35927900      3.69458600      7.16222500
C          13.30236500      3.38979500      5.12960700
N          13.61183900      4.66253100      5.56366600
H          13.05296600      5.82243900      7.33964900
H          11.75927900      3.46410700      8.05016000
H          13.54457100      2.97133800      4.15486100
C          14.37188700      5.64774100      4.78942700
H          14.40328100      6.62272400      5.31619000
H          15.40208100      5.30693900      4.59923100
H          13.86429700      5.84855300      3.80787100
N          12.54676200      2.78151400      6.11746500
C          11.97647500      1.41634300      6.04662600
H          11.92246200      1.01347800      7.09741900
H          12.66369200      0.76263100      5.46618100
C          10.56130800      1.40178800      5.45210900
H          10.16322600      0.36850900      5.53826600
H           9.88086100      2.02079400      6.09572200
C          10.46968400      1.87162700      4.00413800
H           9.51208800      1.52808700      3.55519200
H          11.26614600      1.42877400      3.37465400
C          10.51796100      3.38695400      3.90849600
O          11.46969900      3.87471900      3.21058900
O           9.68170100      4.08741400      4.52147800
P          11.04575100      7.08878800      4.57834000
O          11.56509400      6.88719200      5.96333200
O          11.05575000      8.67423700      4.16119600
H          10.62299800      8.90000100      3.29403600
O          11.87670000      6.36293200      3.42480000
H          11.59178500      5.26129700      3.17354600
O           9.48408800      6.70141400      4.33694300
H           9.24885300      5.68321300      4.31808300
O           8.79434600      3.60820000      7.08517800
H           9.17341800      4.47060800      7.40642400
H           8.87938100      3.64796400      6.10581100
O          10.11832700      5.78286500      7.98955400
H          10.70595600      6.11761800      7.25292500
H           9.55277900      6.52052000      8.20480200
O          10.39008500      1.99810800      8.43556000
H           9.71101600      2.46472500      7.84765500
H          10.00603900      1.98819200      9.30358500
          41
 Energy =     -0.62898100 a.u.  #Cluster:    7
C          13.17535900      5.13624700      7.79344700
C          12.84661100      3.78490700      7.83438700
C          12.80702900      4.44920400      5.67164000
N          13.15169100      5.53208900      6.44659700
H          13.40875600      5.80512600      8.60650300
H          12.72215800      3.11830200      8.69203500
H          12.66296400      4.44623600      4.56742300
C          13.38884000      6.89010200      5.95221800
H          14.04839600      7.46026600      6.62362900
H          13.83189300      6.87888900      4.93709000
H          12.40648700      7.43859700      5.85675600
N          12.62901700      3.36664500      6.51541200
C          12.18991200      2.01209000      6.10186100
H          12.72326600      1.26316700      6.73120200
H          12.50200400      1.84726700      5.03650800
C          10.66724000      1.85104200      6.24923400
H          10.45105000      0.95075600      6.86180900
H          10.23643100      2.69355000      6.83869000
C           9.95772700      1.74976900      4.89910000
H           8.87245000      1.57084100      5.05012100
H          10.33065900      0.88913100      4.30937800
C          10.14978500      3.03306800      4.10964000
O          11.25224800      3.17946700      3.49166400
O           9.25065900      3.90960100      4.14872900
P          10.76251300      6.63183200      3.39448500
O          10.73296700      7.01551600      4.83378100
O          11.09957400      7.90678100      2.42131200
H          10.90071600      7.78207500      1.45371600
O          11.91434000      5.54647000      3.07931900
H          11.56626200      4.47500000      2.92514800
O           9.42099100      6.04380500      2.70612900
H           9.03915000      5.13839300      3.11828400
O           9.74856800      5.14816100      6.60036600
H           9.99561400      6.02029700      6.20618900
H           9.27216400      4.68321500      5.88424900
O          11.03805400      2.10398300      9.25235100
H          10.87335900      1.75517200     10.11941300
H          10.39193500      2.85273100      9.13237700
O           9.82855400      4.45011600      8.91266000
H          10.51201900      4.89013600      8.37610200
H           9.02061300      4.55996000      8.37905600
          41
 Energy =     -0.62896600 a.u.  #Cluster:    8
C          13.84748000      3.51692400      7.90567700
C          13.63902800      2.34495300      7.18545100
C          12.95259200      4.08430900      5.90897700
N          13.42037900      4.58571400      7.10208100
H          14.22613300      3.64996700      8.90829600
H          13.83486300      1.32489300      7.47144600
H          12.50732500      4.67519200      5.07781300
C          13.34750300      5.98923400      7.51691800
H          12.86984600      6.61619900      6.71920500
H          12.68336100      6.08035400      8.41324800
H          14.34247200      6.39769400      7.74639600
N          13.08895400      2.70898400      5.94529900
C          12.56569900      1.79416000      4.90589500
H          13.12846400      0.83797300      4.93765600
H          12.76183600      2.26403300      3.90026700
C          11.05473700      1.56841700      5.10010900
H          10.86428500      0.54456400      5.47195900
H          10.65430300      2.25186400      5.89637000
C          10.27062500      1.81051700      3.81005200
H           9.21401600      1.49110400      3.93945100
H          10.66467700      1.20542500      2.96985500
C          10.31298900      3.28137600      3.43670400
O          11.39188600      3.85033000      3.18138400
O           9.17378200      3.88034800      3.42387500
P          10.77780500      6.81363100      4.05905500
O          11.42723500      6.30958700      5.31247400
O          10.74311000      8.44774100      3.99832300
H          10.29014000      8.84613700      3.20492100
O          11.59756100      6.43621600      2.69575900
H          11.70704400      5.42240100      2.50548500
O           9.28656600      6.32634800      3.81469300
H           9.18108600      5.22050600      3.34093500
O           7.93638600      4.62534000      5.61228000
H           8.10925600      5.48775300      5.18017100
H           7.99029500      3.97338700      4.88480300
O          10.24328700      4.19778100      6.76062900
H          10.58372000      5.02432800      6.33782100
H           9.25546500      4.23524200      6.59274200
O          11.15876700      4.84846700      9.18809900
H          10.42852700      5.21681600      9.66606500
H          10.76653200      4.43379100      8.37136800
          41
 Energy =     -0.62877100 a.u.  #Cluster:    9
C          12.91052600      5.00955300      6.78933400
C          12.28896000      3.82868800      7.18774000
C          13.32358500      3.44744300      5.22649200
N          13.54142000      4.75142200      5.57623300
H          12.92450700      5.97797500      7.26951100
H          11.67773100      3.63518000      8.06024400
H          13.65490600      2.96687900      4.31224700
C          14.24194200      5.71651500      4.75001000
H          15.33024600      5.54313200      4.76921400
H          13.87947000      5.66391500      3.69534000
H          14.03312700      6.75534300      5.09200900
N          12.56764200      2.86982400      6.21644400
C          12.09443200      1.48596500      6.19589100
H          11.97250300      1.13590200      7.25809100
H          12.87242200      0.84387000      5.72519700
C          10.75141300      1.32508700      5.46229900
H          10.45220700      0.25839300      5.52924800
H           9.94644500      1.86983900      6.00724300
C          10.77302900      1.77518400      4.00627700
H           9.90557300      1.35151900      3.46012800
H          11.67139500      1.42244300      3.47423600
C          10.66593200      3.29985100      3.92706300
O          11.63427800      3.90631900      3.41761500
O           9.64797600      3.83329400      4.40641800
P          10.76575500      7.15056100      4.38343300
O          11.51561100      7.15725200      5.65295300
O          10.48304300      8.65548200      3.94146100
H           9.97008200      8.61479800      3.04425400
O          11.55780000      6.53806700      3.16131800
H          11.53508100      5.45633700      3.23168900
O           9.33226400      6.49167000      4.43015700
H           9.44177000      5.42060900      4.42090800
O           9.07669900      3.79861400      7.19040400
H           9.52231200      4.60280800      7.49478600
H           9.16966500      3.81468500      6.21997500
O          10.50017700      6.04532200      8.07386200
H          10.80209000      6.44527100      7.23251400
H           9.84631800      6.66202100      8.40276300
O          10.24610700      1.71228800      8.49703800
H           9.78623200      2.43967100      8.02039900
H           9.66734600      1.49101100      9.21757100
          41
 Energy =     -0.62822700 a.u.  #Cluster:   10
C          13.44003300      4.38113600      7.39966300
C          13.05153000      3.06021400      7.20790100
C          13.21691800      4.03895100      5.18583600
N          13.53508600      4.96698000      6.13864200
H          13.62515900      4.92477500      8.31390400
H          12.82521000      2.29691600      7.93215500
H          13.17683500      4.20201100      4.10335900
C          13.84236900      6.36456900      5.89603100
H          14.81664300      6.63621600      6.33571000
H          13.85314700      6.59851800      4.81113600
H          13.05713800      7.01510600      6.35566500
N          12.92933900      2.86429500      5.83253600
C          12.51131000      1.61438100      5.19572400
H          13.11787200      0.78303800      5.62154800
H          12.74664200      1.66785600      4.10078600
C          11.00639100      1.35081500      5.40007800
H          10.85554100      0.31125100      5.74920100
H          10.60265300      1.99173000      6.21709500
C          10.20532300      1.58917500      4.12282200
H           9.15176500      1.27342400      4.25902800
H          10.59689500      1.00215900      3.27387400
C          10.24949600      3.07520900      3.76731400
O          11.34882100      3.54092800      3.39970400
O           9.19679800      3.72946200      3.90007900
P          10.41502900      6.91389800      4.14133900
O          10.23886900      6.91516500      5.59886400
O          10.62909100      8.40284600      3.62039000
H          10.71875700      8.35521200      2.59224300
O          11.72866000      6.16508100      3.64656000
H          11.49902300      5.14264100      3.43382500
O           9.22292400      6.35094500      3.27424900
H           9.14851800      5.29123400      3.46881100
O           8.74820900      4.33634100      6.55799900
H           8.96590800      5.27023500      6.43301700
H           8.77652600      3.99092800      5.63764200
O          11.58940700      6.20029600      8.21079000
H          11.13435800      6.57101400      7.45038500
H          11.24752500      5.30075700      8.27900900
O          10.62928100      3.46523100      8.22854200
H           9.94165600      3.73392500      7.56259600
H          10.12736800      3.30513800      9.02395300
          41
 Energy =     -0.62799100 a.u.  #Cluster:   11
C          12.94129900      5.05388900      6.62879800
C          12.36280500      3.86599900      7.06819300
C          13.30687800      3.48418700      5.06124200
N          13.51727900      4.79516400      5.38843300
H          12.96042200      6.02753700      7.09828700
H          11.79594300      3.66938000      7.96980800
H          13.59935900      3.00120300      4.13507500
C          14.16673800      5.76327000      4.52482200
H          13.95828500      6.80193300      4.86801000
H          15.25738100      5.60575300      4.49830500
H          13.75996800      5.69791300      3.48757400
N          12.61387800      2.90239500      6.09378200
C          12.17006900      1.50847600      6.11234400
H          12.16861200      1.15063800      7.17634100
H          12.90730100      0.88494900      5.55770400
C          10.76282200      1.32781600      5.51815500
H          10.46950800      0.26519300      5.64683200
H          10.01401800      1.89324700      6.11937800
C          10.64986900      1.73157000      4.05274800
H           9.73414600      1.29583500      3.60349200
H          11.49464600      1.35794800      3.45124500
C          10.54236200      3.25335000      3.93720800
O          11.48664800      3.84419400      3.36750600
O           9.54821300      3.80249400      4.44809100
P          10.65670400      7.11496100      4.28683500
O          11.47183100      7.16173800      5.51466400
O          10.34993200      8.60615100      3.81512800
H           9.78927600      8.53954600      2.94889200
O          11.38620500      6.46724000      3.04369400
H          11.37629300      5.38842300      3.14796100
O           9.23010900      6.45626600      4.43145300
H           9.33682300      5.38405900      4.39757700
O           9.11517000      3.83870600      7.25537400
H           9.57988800      4.64853100      7.51225500
H           9.15970600      3.82454600      6.28186400
O          10.58785400      6.10006200      8.00772200
H          10.84113000      6.48103700      7.14196100
H           9.94705700      6.72007800      8.35568300
O          10.34627400      1.81058600      8.59877600
H           9.86542900      2.51494000      8.11050500
H           9.80189600      1.62880200      9.35628500
          41
 Energy =     -0.62770600 a.u.  #Cluster:   12
C          13.15548200      3.77218100      7.97735900
C          12.97029900      2.54223100      7.35550900
C          12.81720900      4.14969200      5.78578500
N          13.07098300      4.74951100      6.98638700
H          13.30977200      3.99904500      9.01538100
H          12.93516100      1.55139700      7.78122400
H          12.67759000      4.65867200      4.82799200
C          13.15419300      6.17927500      7.21343600
H          12.18265300      6.56776800      7.59761400
H          13.94273000      6.42279100      7.94416800
H          13.36491100      6.73164300      6.26839100
N          12.77613900      2.79385100      5.99822800
C          12.46615400      1.77886300      4.98961700
H          13.15493200      0.91632700      5.12892200
H          12.67300200      2.20377000      3.96767500
C          10.99530000      1.32827900      5.09092200
H          10.94449600      0.22726300      5.18915600
H          10.52974300      1.71632000      6.02638000
C          10.17270600      1.78261500      3.88686900
H           9.11072700      1.49565500      4.00966400
H          10.52308200      1.30771900      2.95275700
C          10.27649600      3.30116600      3.75691700
O          11.25574900      3.74863200      3.12809100
O           9.41540900      3.99331400      4.34319600
P          10.81936200      7.14010000      3.91946600
O          11.43023900      7.14774000      5.26175000
O          10.73992200      8.63279300      3.36974700
H          10.33799000      8.58402100      2.41851200
O          11.65079600      6.36582600      2.82399100
H          11.44011000      5.30920800      2.89812800
O           9.32542100      6.62843800      3.86997600
H           9.32268900      5.56113600      4.03138500
O          10.36587100      4.13377700      6.93877500
H          10.10761600      5.01259500      7.25198700
H           9.95583200      4.05617500      6.05376400
O           9.73243100      6.79032200      7.57152200
H          10.28598500      7.04880900      6.80743600
H           8.84256300      7.01335200      7.29441600
O          10.63083200      1.88240300      8.53373500
H          10.51653300      2.69690200      8.01003700
H           9.82091600      1.78842700      9.02374200
          41
 Energy =     -0.62709600 a.u.  #Cluster:   13
C          13.01856100      4.29939900      7.19547200
C          12.61939700      2.98221700      6.99052500
C          13.18731100      3.85948800      4.99539900
N          13.37853100      4.81534600      5.95474200
H          13.03984800      4.89021900      8.10706000
H          12.22574300      2.26818700      7.69222300
H          13.29104700      3.99049700      3.91706800
C          13.88425800      6.15718900      5.73140000
H          13.30264200      6.89720400      6.33302900
H          14.94562800      6.22771000      6.02680100
H          13.78014600      6.46116100      4.66799300
N          12.75092900      2.72172500      5.62821300
C          12.50372700      1.43246700      4.97998800
H          13.18903800      0.67883800      5.43297300
H          12.77137100      1.51617000      3.89423900
C          11.03826200      0.98002100      5.11654600
H          11.00375800     -0.11406600      5.28336000
H          10.56829300      1.43210100      6.01863500
C          10.21874700      1.34002300      3.87916200
H           9.17625600      0.98066900      3.97936000
H          10.62538700      0.87458400      2.96468900
C          10.22206300      2.86118600      3.72543300
O          11.24239000      3.37469000      3.21905000
O           9.23533900      3.47845100      4.17502400
P          10.51333700      6.62441600      4.28816600
O          10.87558100      6.42676900      5.70327400
O          10.53215900      8.17940300      3.94622300
H          10.26862800      8.27072900      2.94989600
O          11.58210600      6.00401500      3.29249400
H          11.37539000      4.95318400      3.17272300
O           9.09055800      6.12180400      3.84151600
H           9.08120600      5.03899600      3.94873000
O          10.10457700      3.75140300      6.82898700
H          10.45288500      4.61843200      6.56563400
H           9.55876900      3.51874400      6.05051700
O          11.87852100      6.64514900      8.50689800
H          11.52849100      6.84805100      7.63580600
H          11.14343600      6.18326800      8.94001400
O           9.62321700      5.06805800      9.26195900
H           9.71580500      4.48275400      8.49054000
H           8.78668300      5.50935100      9.12824200
          41
 Energy =     -0.62599100 a.u.  #Cluster:   14
C          13.04276500      4.85854600      7.45849600
C          12.52640100      3.57081500      7.53230300
C          13.08645800      3.97522200      5.38746700
N          13.39409900      5.08267400      6.12836500
H          13.16533900      5.60033200      8.23343300
H          12.13992800      3.02798900      8.38254700
H          13.19313500      3.86532100      4.30306800
C          13.97762700      6.31246800      5.62613500
H          14.08515100      6.29110800      4.51981200
H          13.31429000      7.18029100      5.85843100
H          14.96790900      6.49001600      6.07834900
N          12.56843700      3.03740900      6.24428000
C          12.11063500      1.69696400      5.87321400
H          12.61005600      0.95980100      6.54318300
H          12.44423300      1.47594900      4.82592200
C          10.57873600      1.56898900      5.97363300
H          10.31844300      0.61406400      6.46963700
H          10.15977400      2.36061400      6.63575500
C           9.90751700      1.64320600      4.60484700
H           8.81781300      1.46662000      4.69347300
H          10.29318200      0.87442500      3.91319800
C          10.15251100      3.02989900      4.00844200
O          11.30025500      3.26365000      3.57488600
O           9.20612500      3.84063500      4.03713600
P          10.89257900      6.78530200      3.61756600
O          10.91401800      7.02708700      5.06511400
O          11.23508900      8.12889200      2.83173900
H          11.19721400      7.91043900      1.82328400
O          12.03056800      5.78498500      3.12599200
H          11.66724100      4.78138500      3.18021000
O           9.54153100      6.28631500      2.97235600
H           9.34296700      5.29529600      3.35332700
O           9.04389000      5.03399700      6.54800600
H           9.56119200      5.80922700      6.29674700
H           8.95249200      4.54669200      5.70243800
O          11.84059600      4.88068700     10.10141000
H          11.48309100      5.20510800     10.92051300
H          11.09218100      4.46961900      9.63783400
O           9.77042300      3.62684500      8.69616700
H           9.56102400      4.16922400      7.89120700
H           8.92310800      3.49189700      9.11007800
          41
 Energy =     -0.62582300 a.u.  #Cluster:   15
C          13.05288300      3.87593700      8.11938100
C          12.78726500      2.59662500      7.64507200
C          12.66430500      4.02957300      5.89607300
N          12.97780400      4.75235600      7.02684500
H          13.24089900      4.22202400      9.13520500
H          12.75077800      1.66355700      8.18278800
H          12.48566800      4.44737300      4.88418700
C          13.15585000      6.20560000      7.09293000
H          14.22119000      6.48135000      7.02013600
H          12.60951400      6.71348100      6.25488400
H          12.74426300      6.60193700      8.04993700
N          12.55734400      2.70137000      6.26196800
C          12.14463800      1.59945600      5.36451700
H          12.67621900      0.66989800      5.65999100
H          12.48287300      1.85046700      4.31601500
C          10.61681500      1.40795600      5.39654700
H          10.37307800      0.39287000      5.76652000
H          10.14367800      2.10903000      6.12081200
C           9.98263300      1.61723600      4.02124900
H           8.88455800      1.46693800      4.07885600
H          10.35571500      0.87682400      3.28696900
C          10.26844100      3.02395600      3.50484900
O          11.42239700      3.25502800      3.05170400
O           9.35334700      3.88248200      3.61391200
P          11.20721600      6.49771600      3.21352900
O          11.54128000      6.23159400      4.65076700
O          11.54072900      8.03210300      2.76152700
H          11.29152300      8.27447600      1.82551900
O          12.03917200      5.59513900      2.16599300
H          11.87872700      4.52545700      2.25766900
O           9.65401500      6.31621900      2.81542900
H           9.25863200      5.32209300      2.96041300
O           9.79717800      4.68852600      6.18073400
H          10.34025100      5.40188400      5.76169100
H           9.21195100      4.37310600      5.46160600
O          11.84173900      5.75599500      9.77695400
H          11.61472000      6.14767500     10.60989800
H          10.98944600      5.40444600      9.39496500
O           9.72623200      4.60817300      8.58711300
H          10.12550800      3.95514800      7.98982200
H           9.24955200      5.20693000      7.97503300
          41
 Energy =     -0.62462000 a.u.  #Cluster:   16
C          12.76810000      3.70504200      8.00182200
C          12.65692300      2.49944900      7.31866100
C          12.86652000      4.14543600      5.79690700
N          12.90104600      4.70688100      7.04534300
H          12.74299000      3.90860700      9.06720700
H          12.52350500      1.50388500      7.69751900
H          12.91387900      4.68133700      4.84170100
C          13.04407700      6.12112500      7.34239900
H          13.71225400      6.27328200      8.20942300
H          13.42666300      6.68687200      6.46848700
H          12.05893100      6.57051300      7.61712100
N          12.73091500      2.79092500      5.95705000
C          12.63722800      1.79610500      4.88796800
H          13.35732600      0.97511700      5.10078700
H          12.96082000      2.27048200      3.91764200
C          11.20124300      1.25201900      4.75896800
H          11.20814600      0.14803900      4.82884500
H          10.56964700      1.59307500      5.61110200
C          10.55077700      1.68356500      3.44624800
H           9.51126800      1.31035200      3.38247600
H          11.08584900      1.27349900      2.57140100
C          10.55435100      3.21277100      3.36871800
O          11.62527300      3.75544700      3.04006000
O           9.49980000      3.80351000      3.68856300
P          10.81922300      6.98928400      3.98145800
O          11.24366200      6.73562900      5.36720500
O          10.78614400      8.55830400      3.70679900
H          10.48475600      8.68668900      2.72632600
O          11.82038300      6.43114700      2.88817000
H          11.72313800      5.36424100      2.86066000
O           9.36956600      6.49613900      3.59380500
H           9.37882400      5.42085200      3.59800400
O           8.89504900      3.27960500      6.28225300
H           7.94126500      3.27300400      6.30236900
H           9.11217200      3.48342000      5.33737200
O           9.70806500      5.56755400      7.65359800
H          10.05836000      6.08507700      6.91550300
H           9.41151400      4.73956300      7.23737500
O          11.46716000      5.45789300      9.74355100
H          10.97264600      5.70585400     10.51692300
H          10.81056400      5.46841500      9.01221200
          41
 Energy =     -0.62300400 a.u.  #Cluster:   17
C          13.34509200      4.46091000      7.42280500
C          12.99333100      3.13356100      7.20519100
C          13.27561400      4.11677700      5.19936600
N          13.50863900      5.05066700      6.17182500
H          13.46763800      5.00289500      8.34884500
H          12.73922000      2.36370900      7.91426300
H          13.34599700      4.28354600      4.12462600
C          13.78394000      6.45781000      5.94706900
H          14.74692000      6.74934900      6.39851700
H          13.79637900      6.70381500      4.86445400
H          12.97669400      7.08257000      6.40530600
N          12.96123700      2.93724600      5.82501300
C          12.58075000      1.68301100      5.17202200
H          13.22741300      0.86901300      5.57202600
H          12.79433900      1.75980400      4.07406000
C          11.09085500      1.35930900      5.40527000
H          10.99188500      0.33195900      5.80514700
H          10.66290200      2.01931700      6.19513700
C          10.26356900      1.49938400      4.12969300
H           9.22685000      1.14607500      4.29669600
H          10.67067900      0.88999800      3.30428500
C          10.23980400      2.96854200      3.70709200
O          11.29674200      3.44316000      3.24476300
O           9.18016600      3.60407400      3.88250300
P          10.39846800      6.79168500      4.07530700
O          10.18813900      6.83458700      5.52765100
O          10.62544400      8.26700900      3.52047900
H          10.72438400      8.19494600      2.49498900
O          11.72527700      6.03027200      3.64001500
H          11.48809000      5.02139400      3.36294300
O           9.22683900      6.20639600      3.19640900
H           9.14385000      5.14966100      3.41655000
O           8.69489100      4.25363600      6.50911100
H           8.89246100      5.18906800      6.36554400
H           8.74942900      3.88613300      5.59702100
O          11.42939800      6.26375600      8.20964600
H          11.00163900      6.59971200      7.41801400
H          11.11575100      5.35378900      8.28005400
O          10.56873600      3.49421000      8.22989100
H           9.88440000      3.72235900      7.54402400
H          10.05617000      3.32488500      9.01638200
