%nproc=24
%mem=50GB
#p M062X/6-311+G(2d,p) nosymm em=GD3 counterpoise=3

Title Card Required

0 1
O          13.07293800     12.52299500      9.70175000       1
H          12.60329200     12.27328600      8.88300900       1
H          12.36782400     12.70439100     10.34205700       1
O           7.36596100     12.83989700      9.36317800       2
H           7.50583300     13.75408000      9.57914400       2
H           8.26696500     12.43447400      9.36214400       2 
O          10.84060400     12.49929000     11.63299300       3
H          11.27029100     11.69497600     11.93589900       3
H          10.35307000     12.20357600     10.84024900       3


