          20
 G =       -0.396946 Gcorr = 0.087972 a.u. Nimag =   0 Frame:     1 Step:     2 Geom:     2
C          18.50956700      9.05626400      3.96700800
C          18.21303400      9.16565800      2.60476600
C          16.61169400      7.96071600      3.50437700
N          17.49590900      8.28234000      4.52674600
H          17.36287700      8.10579200      5.52153400
H          19.32945700      9.43220900      4.53902900
H          18.75004100      9.66718700      1.82513600
H          15.71618800      7.38019800      3.64660200
N          17.03500400      8.48719400      2.33529300
P          15.25180200     11.26239200      4.18281900
O          15.26963600     11.12634800      5.63608000
O          14.94388800      9.87234300      3.49001800
H          15.19044000      9.91364300      2.48181000
O          14.15795500     12.22192300      3.53870100
H          14.34156800     13.17567300      3.88868900
O          16.57690500     11.85206000      3.51236200
H          17.37823100     11.26826400      3.77548700
O          16.31695100      8.62917300      6.88650600
H          16.01631600      9.49836000      6.57151100
H          15.51256200      8.17227300      7.12552600
          20
 G =       -0.399271 Gcorr = 0.087134 a.u. Nimag =   0 Frame:     2 Step:     4 Geom:     4
C          18.80875600      8.69617400      4.33493600
C          18.68626800      9.30731300      3.08738600
C          16.82043300      8.19228700      3.43306500
N          17.62899200      7.98210200      4.54157600
H          17.33711500      7.57418500      5.42942900
H          19.59855000      8.72058900      5.05457600
H          19.37441300      9.93722500      2.56117000
H          15.83406900      7.77582600      3.31909100
N          17.44637800      8.99357000      2.54408900
P          15.39536100     11.32338700      4.18901400
O          16.35532200     11.04727700      5.25062300
O          14.25818700     10.20402400      4.19684000
H          13.50563200     10.47687400      3.55857400
O          14.54089600     12.66640700      4.32147000
H          15.10898100     13.43924500      3.94941800
O          15.90997500     11.44461000      2.69665700
H          16.49072600     10.59736800      2.44509400
O          16.36502400      8.40520300      6.72061300
H          16.43736300      9.30740300      6.36447500
H          15.42757500      8.28893900      6.87190800
          20
 G =       -0.399258 Gcorr = 0.087147 a.u. Nimag =   0 Frame:     3 Step:     6 Geom:     6
C          18.78427100      8.66114000      4.28530700
C          18.62625700      9.16769500      2.99566500
C          16.76442900      8.10373900      3.49144100
N          17.60662900      7.97827800      4.58765300
H          17.34041800      7.64883300      5.51530300
H          19.59693100      8.73727300      4.97527400
H          19.30159200      9.74496800      2.39740800
H          15.77196900      7.68888800      3.44348600
N          17.36728200      8.82217500      2.51958000
P          15.38807800     11.30085300      4.02847100
O          16.38090100     11.10438900      5.07746400
O          14.24339300     10.19783100      4.16730200
H          13.47167500     10.42456500      3.53380000
O          14.54905300     12.65921200      4.07585600
H          15.10818500     13.39102200      3.61718200
O          15.85274400     11.29126100      2.51490900
H          16.42039600     10.42127100      2.31699900
O          16.41706500      8.59390800      6.76290400
H          16.48448800      9.46265700      6.33086100
H          15.48426000      8.50005100      6.95313900
          20
 G =       -0.399819 Gcorr = 0.087444 a.u. Nimag =   0 Frame:     4 Step:     7 Geom:     7
C          18.82557200      9.22701600      4.38503200
C          18.54876100      9.47464600      3.04059700
C          17.03508200      8.04108700      3.74581900
N          17.86986200      8.31006800      4.82113500
H          17.69886000      8.04661700      5.79136200
H          19.58674400      9.61380200      5.02591300
H          19.05100400     10.11220700      2.34240300
H          16.18539500      7.37921400      3.79456700
N          17.43190700      8.74039300      2.66030800
P          15.06027400     10.95243600      3.92049000
O          14.69924100      9.75877600      4.68119900
O          13.97463000     12.12132800      3.84903900
H          13.24490400     11.83201200      3.18415800
O          16.28443100     11.69257200      4.61802100
H          16.48932600     12.55754700      4.10372300
O          15.41838800     10.77983800      2.38741100
H          16.05253000      9.94261700      2.25858400
O          16.32475400      8.52070600      6.87227200
H          15.71344200      8.87045400      6.20207900
H          16.43491200      9.24667000      7.48588900
          20
 G =       -0.399268 Gcorr = 0.087136 a.u. Nimag =   0 Frame:     5 Step:     8 Geom:     8
C          18.72049000      8.64796700      4.33288600
C          18.64906500      9.30461200      3.10461900
C          16.75625600      8.20832000      3.34842100
N          17.52391900      7.94624000      4.47482600
H          17.19661800      7.51152000      5.33724800
H          19.48592700      8.63444400      5.07865300
H          19.36386100      9.94149000      2.62433800
H          15.76811500      7.81223200      3.18721400
N          17.42358500      9.03021200      2.50982200
P          15.35595000     11.33454500      4.16814900
O          16.27590700     11.00740800      5.25053100
O          14.20434300     10.23215500      4.09716500
H          13.47713900     10.53954300      3.44525700
O          14.51398500     12.68351600      4.31950200
H          15.11225500     13.46373200      4.01674400
O          15.92286900     11.50137800      2.69943900
H          16.49756800     10.65333400      2.43662900
O          16.19568500      8.31335500      6.62511100
H          16.29485600      9.22649900      6.30536700
H          15.25162500      8.20750800      6.73808000
          20
 G =       -0.399306 Gcorr = 0.087099 a.u. Nimag =   0 Frame:     6 Step:    10 Geom:    10
C          18.72353100      8.59535100      4.39676400
C          18.68654700      9.22473700      3.15278000
C          16.76529300      8.17775300      3.39094800
N          17.50898500      7.92449200      4.53532500
H          17.15821600      7.51760700      5.40204300
H          19.47664300      8.58181300      5.15499700
H          19.42329500      9.83384400      2.66965100
H          15.77102500      7.80026100      3.22284800
N          17.46447200      8.96461200      2.54467500
P          15.42296900     11.35211900      4.11664400
O          16.31742400     11.02930700      5.22127700
O          14.24718600     10.27520800      4.05418500
H          13.53741400     10.58205700      3.38339600
O          14.61322200     12.72472000      4.22387300
H          15.21989500     13.47707400      3.87132400
O          16.01586400     11.47037300      2.65333500
H          16.57618700     10.60465700      2.41940300
O          16.15522600      8.37115200      6.65457500
H          16.27901400      9.27411000      6.31494000
H          15.20761000      8.28876100      6.75701800
          20
 G =       -0.395742 Gcorr = 0.087871 a.u. Nimag =   0 Frame:     7 Step:    13 Geom:    13
C          18.35956700      8.73407000      4.66967000
C          18.58236800      9.20994800      3.37868000
C          16.67250400      8.11637000      3.32661900
N          17.15414200      8.03113300      4.62798800
H          16.64507500      7.70966000      5.44418300
H          18.92885600      8.84399600      5.56677700
H          19.39398900      9.79347800      2.99227700
H          15.74616700      7.67841800      2.99452000
N          17.52461100      8.82924700      2.56128100
P          15.42415900     11.37599100      3.84412600
O          16.26475300     11.42712600      5.04013900
O          14.49840300     10.06184600      3.77110000
H          14.57821400      9.55209400      4.65064700
O          14.40970200     12.59313500      3.77697200
H          13.90271000     12.53549000      2.87758000
O          16.07919900     11.40817900      2.40534900
H          16.60928400     10.50574700      2.25146100
O          15.68624800      8.86506300      6.51151800
H          15.31763700      8.98338300      7.38283100
H          16.03242800      9.73563200      6.24628600
          20
 G =       -0.393030 Gcorr = 0.082449 a.u. Nimag =   0 Frame:     8 Step:    14 Geom:    14
C          19.19734400      9.44434700      3.44682600
C          19.23686600      8.72285400      2.24942900
C          17.63208400      7.84191400      3.45971300
N          18.19322600      8.86784400      4.21644300
H          17.82211400      9.24573500      5.08458100
H          19.77417400     10.27872100      3.78215600
H          19.88157300      8.84045900      1.40247600
H          16.82145100      7.22407500      3.80072100
N          18.26275100      7.73891500      2.27432900
P          15.45432800     10.90734200      4.41693900
O          16.17478300     10.08062400      5.39017400
O          13.94819500     10.49802800      4.13575300
H          13.53992000     10.11698400      5.01642000
O          15.43009000     12.42921200      4.86386300
H          15.00640400     12.98174400      4.10075400
O          16.05179000     11.01080600      2.94464300
H          16.25370000     10.05660400      2.60513200
O          13.05014900      9.45644800      6.67919000
H          13.72989200      8.78970000      6.82734900
H          13.25917800     10.15765600      7.30310900
          20
 G =       -0.395741 Gcorr = 0.087872 a.u. Nimag =   0 Frame:     9 Step:    17 Geom:    17
C          18.58446400      9.07611400      4.60202000
C          18.65913800      9.52853700      3.28575400
C          16.96292200      8.12817000      3.37579400
N          17.51569100      8.17934500      4.65045600
H          17.10956700      7.81100900      5.50367600
H          19.17059200      9.31717800      5.46186500
H          19.33957500     10.22365500      2.83595100
H          16.10926300      7.52730500      3.11034300
N          17.64252800      8.94168700      2.54136400
P          15.20123500     11.14835600      3.84827500
O          16.08050900     11.39210600      4.99163800
O          14.50913600      9.69590200      3.87454000
H          14.71869500      9.24668300      4.76591200
O          13.99284900     12.17421800      3.79660700
H          13.45864700     11.99295200      2.92991700
O          15.76723800     11.22631900      2.37394100
H          16.44292700     10.42627700      2.22456900
O          16.02224900      8.83567500      6.58238200
H          16.20167800      9.73931600      6.26722200
H          15.68111200      8.92920200      7.46777600
          20
 G =       -0.392506 Gcorr = 0.082232 a.u. Nimag =   0 Frame:    10 Step:    20 Geom:    20
C          18.47173300      9.64128000      1.23101300
C          17.62885200      9.97707400      2.29018100
C          19.23475500      8.73238100      3.14053000
N          19.48887400      8.85254600      1.77494600
H          20.24662600      8.45616400      1.26782800
H          18.42561400      9.89053400      0.19287400
H          16.72906000     10.57078500      2.30022900
H          19.85361200      8.17688000      3.82365900
N          18.11747400      9.40763300      3.45588900
P          15.18329100     10.27621900      5.69556300
O          14.26440600      9.17080900      5.93726900
O          15.10375000     10.93209500      4.23317500
H          14.17666700     10.74921200      3.82926700
O          14.88647000     11.48217000      6.69487700
H          15.62382300     12.18763900      6.58644600
O          16.73648100     10.05642600      5.88207400
H          17.15054600      9.71125800      4.96464600
O          12.39699300     10.15197000      3.36215800
H          12.54636500      9.22605800      3.58657900
H          11.90462400     10.50087800      4.11079700
          20
 G =       -0.392855 Gcorr = 0.083392 a.u. Nimag =   0 Frame:    11 Step:    21 Geom:    21
C          18.31310600      9.12137000      2.45366500
C          18.89911700     10.15897100      1.72227200
C          16.73632100     10.53509000      1.71933100
N          16.94228000      9.35750200      2.43411200
H          16.24652300      8.83887800      2.95651200
H          18.74847600      8.28207000      2.94982600
H          19.93027500     10.33430200      1.49104500
H          15.76625900     10.96939200      1.54767900
N          17.91148100     11.02221700      1.27822800
P          15.15811200     10.53448500      5.32012200
O          15.82705000     10.63375400      6.60418800
O          15.35745800      9.14385900      4.53914900
H          15.54034000      8.38278600      5.20926200
O          13.58703000     10.70916800      5.41867500
H          13.19367500     10.67315400      4.46458200
O          15.51545800     11.54856300      4.14419800
H          16.54042100     11.58957800      4.04033300
O          15.94117300      7.21543300      6.56000900
H          16.64189500      7.68620800      7.02615900
H          15.18356200      7.26322400      7.15065500
