%mem=50GB
%nprocshared=24
#p opt freq b3lyp/6-311+g(2d,p) scrf=(smd,solvent=water) em=gd3bj

Title Card Required

0 1
 C                  2.01717300   -0.60916100    1.00827800
 C                  0.93870800   -1.43079900    0.95281900
 C                  1.00219200   -0.26805600   -0.91773500
 N                  2.03993000    0.10731200   -0.17229900
 H                  2.76497100   -0.47156500    1.76946900
 H                  0.55526600   -2.14343400    1.66163500
 H                  0.75554700    0.12104500   -1.89048700
 C                  3.03035600    1.11891700   -0.53682900
 H                  2.78308900    1.51070000   -1.52008200
 H                  3.00742800    1.92288000    0.19656400
 H                  4.01939200    0.66510300   -0.55696300
 N                  0.32395700   -1.21108200   -0.26326100
 C                 -0.94843700   -1.80751900   -0.70057100
 H                 -0.90165600   -2.86729300   -0.45356300
 H                 -0.98566400   -1.70935300   -1.78490900
 C                 -2.16534700   -1.15382400   -0.05071200
 H                 -3.03153400   -1.73326300   -0.38055200
 H                 -2.10286000   -1.26108300    1.03426100
 C                 -2.36619400    0.31560300   -0.42782300
 H                 -3.38790700    0.60790500   -0.16301700
 H                 -2.27016500    0.44852400   -1.50750700
 C                 -1.45711000    1.32764400    0.28549500
 O                 -1.06492400    2.32907300   -0.38390800
 O                 -1.19272000    1.13085200    1.50472300

