%nproc=24
%mem=50GB
#p M062X/6-311+G(2d,p) nosymm em=GD3 counterpoise=4

Title Card Required

0 1    
P          12.80903700      8.96750600      8.32280800         1
O          12.37231000      9.04776700      9.72189300         1
O          14.24341900      8.28789800      8.23046800         1
H          14.50426400      8.26539400      7.22880800         1
O          11.91062000      8.12232500      7.33517900         1
H          10.97382200      8.63118000      7.22143000         1
O          13.02902000     10.38833500      7.63655600         1
H          12.09786900     10.76248600      7.30488200         1
O           8.16079700      8.12452600      9.11297900         2
H           8.65982700      8.62072100      8.41019100         2
H           7.97976300      7.27755500      8.71882300         2
O           9.88987800      8.12193500     11.28444200         3
H          10.73149100      8.08876000     10.81738100         3
H           9.22743800      7.99733000     10.58101200         3 
O          12.00118600     12.99374700      9.00359900         4
H          12.85871200     12.61664500      8.79193500         4
H          11.42043500     12.61790300      8.30716400         4 

