%nproc=24
%mem=100GB
#p M062X/6-311+G(2d,p) nosymm em=GD3 counterpoise=4

Title Card Required

0 1
P           9.41381300      8.81612700      8.09069100      1
O           8.60824600     10.04554700      8.06453200      1
O           9.10923700      7.77639300      9.24323000      1
H           9.07446300      8.30175500     10.16682000      1
O           9.16512800      7.94790000      6.78003800      1
H           9.73589300      7.08973400      6.86635400      1
O          10.99585400      8.96347400      8.12532800      1
H          11.27348300      9.94603700      8.31307800      1
O          11.80003600     11.64312400      8.70156000      2
H          11.77757100     11.74231600      9.65856900      2
H          11.05075800     12.16126800      8.37782600      2
O           9.37141300     12.77951100      7.69817400      3
H           9.41234800     12.89963500      6.74985400      3
H           9.05899500     11.85917400      7.81793100      3
O           8.03245300     14.18574900      9.75806000      4
H           8.53968500     13.77879700      9.03609500      4
H           7.47396800     14.83997200      9.34887300      4

