          29
 Energy =    -1176.88213280 a.u.  Frame:     1 Step:     1 Geom:     1
C           7.04325400     13.53930000     10.03897600
C           6.18692000     14.62955200     10.41245800
C           6.11882000     15.04522100     11.74470100
C           6.89432900     14.36512900     12.66878400
C           7.72448600     13.28779300     12.29525200
C           7.81453400     12.85744400     10.98150500
H           5.47796800     15.87795800     12.02662800
H           6.86700400     14.66242100     13.71647800
H           8.30276700     12.78199200     13.06823300
H           8.44961800     12.02639900     10.68979800
H           7.53920000     12.86541900      8.06921600
C           5.98826300     14.36864400      8.23846600
H           5.69325600     14.48790200      7.20289500
N           6.88380800     13.37532800      8.65737400
N           5.55041300     15.11555600      9.26211500
P           8.16682300     17.15160800      8.17604600
O           9.10639800     16.95605200      9.27614500
O           6.71106100     17.68743000      8.49325800
H           6.13486000     16.90080300      8.90091000
O           8.70604200     18.22995400      7.14334100
H           7.97388600     18.37978400      6.43042300
O           7.84225200     15.86619900      7.27356900
H           8.48270300     15.09403700      7.46308500
O           9.29650700     13.34236000      7.86404800
H           9.68293700     13.65396500      8.71724600
H          10.03925300     13.08848100      7.32386400
O          10.31891300     14.40631200     10.14638800
H           9.76495300     14.23138500     10.91545100
H          10.10878300     15.32558800      9.91335900
          29
 Energy =    -1176.88068740 a.u.  Frame:     2 Step:     2 Geom:     2
C           7.13440900     13.85751700     10.27579300
C           6.42523900     15.03730400     10.68192600
C           6.68503200     15.62197900     11.92453300
C           7.63927800     15.02132500     12.72774900
C           8.33262100     13.86193100     12.32044400
C           8.09554300     13.26213500     11.09500400
H           6.15318400     16.52057300     12.22868400
H           7.87055200     15.45048800     13.70165800
H           9.07508200     13.43354600     12.99346600
H           8.63504800     12.37554300     10.77484600
H           7.11384900     12.89077700      8.36480800
C           5.72105100     14.52418800      8.66343400
H           5.20633300     14.53898100      7.71135900
N           6.64968400     13.53192400      9.00310000
N           5.55979600     15.42043800      9.64748800
P           8.14564400     16.96682100      7.88938800
O           9.20459600     16.62604800      8.83479400
O           6.86857900     17.74813200      8.40585500
H           6.26436000     17.08336600      8.96205800
O           8.68301500     17.92024500      6.73887700
H           7.88101200     18.18397800      6.14427400
O           7.47732500     15.73334400      7.11335800
H           8.02886000     14.87955600      7.23671500
O           8.78014200     13.12253500      7.65701900
H           9.38877100     13.48637100      8.34620400
H           9.33655500     12.66381500      7.03607600
O          10.42743500     14.26205100      9.49208200
H          10.78839200     15.04027100      9.04243800
H           9.80861900     14.64483900     10.13658200
          29
 Energy =    -1176.88202570 a.u.  Frame:     3 Step:     3 Geom:     3
C           6.74170600     13.83737600     10.44080300
C           6.45652900     15.09088200     11.07819700
C           5.13366600     15.50597200     11.25731600
C           4.13247300     14.66668700     10.80075500
C           4.42152800     13.43514400     10.17452000
C           5.72174100     13.00008300      9.98364800
H           4.91862300     16.45792900     11.73642300
H           3.08991000     14.95661300     10.92067100
H           3.59186800     12.81759800      9.83260400
H           5.94517400     12.05650800      9.49882400
H           8.65133600     13.05136200      9.86322700
C           8.64392300     14.88205100     11.01805300
H           9.70599800     15.06655200     11.12573000
N           8.13649500     13.71517900     10.43394200
N           7.66827400     15.71250800     11.41182600
P           8.48535300     16.90750000      8.21545100
O           9.85552900     16.51802800      8.56248200
O           7.66054100     17.74287000      9.27624400
H           7.70873500     17.24264300     10.20594500
O           8.43805200     17.85082100      6.93758100
H           7.45151300     18.12535100      6.78890100
O           7.49677700     15.71684300      7.81940300
H           7.95896700     14.81022300      7.95791800
O           8.97830500     13.02289300      8.07852700
H           9.83506000     13.41216500      7.79850000
H           8.80775400     12.31039600      7.46989000
O          11.26955900     14.31739700      7.28964900
H          11.29339400     14.62168000      6.38134100
H          11.00122600     15.10876500      7.79164700
          29
 Energy =    -1176.87386570 a.u.  Frame:     4 Step:     4 Geom:     4
C           6.92667100     14.75451000     10.95332600
C           7.15546900     13.80521000      9.90241900
C           6.10969300     13.42180500      9.05905200
C           4.86266000     13.97703500      9.29417700
C           4.64320300     14.89791200     10.33909300
C           5.66490800     15.30565800     11.18157600
H           6.28983500     12.73420900      8.23398400
H           4.02669900     13.70884500      8.64983600
H           3.64043500     15.30150200     10.47590500
H           5.49749800     16.01715900     11.98179900
H           8.38455900     15.73229100     12.15798900
C           9.09658000     14.17124000     10.86795400
H          10.15147500     14.16821800     11.10628700
N           8.16603100     14.94193800     11.58391700
N           8.51430000     13.45662500      9.90084800
P           8.73811100     17.19889500      8.91377400
O           9.79873400     16.20396700      9.01484200
O           7.94211400     17.37709100     10.29467100
H           6.93560100     17.33347300     10.12166200
O           9.32069300     18.64232500      8.61143500
H           8.53384900     19.28957300      8.45712100
O           7.56403000     17.04116200      7.85878000
H           7.52860300     16.06701100      7.46357500
O           7.41947800     14.54196900      6.67697200
H           8.20847200     14.03814300      7.00941600
H           7.59558800     14.66294000      5.74639600
O           9.68063400     13.37569400      7.56167000
H           9.32243000     12.85753500      8.32606500
H           9.96165500     14.19608900      7.98547200
          29
 Energy =    -1176.88226390 a.u.  Frame:     5 Step:     5 Geom:     5
C           6.98246400     13.85471400     10.97139800
C           5.89721800     14.66945500     10.50567300
C           5.13301600     15.41156900     11.41072100
C           5.46505900     15.32251700     12.75151300
C           6.53257300     14.51678400     13.20178600
C           7.30646500     13.77290500     12.32710700
H           4.31505100     16.03410800     11.05580500
H           4.89439500     15.88809400     13.48673300
H           6.74842600     14.48707600     14.26947800
H           8.12696300     13.15486400     12.67350700
H           8.44148700     12.80723700      9.79699200
C           6.79073500     13.71805100      8.73780100
H           7.00370200     13.42006800      7.71892600
N           7.52213900     13.23991000      9.83380100
N           5.81739800     14.55869700      9.11007700
P           8.26292700     16.79688500      7.95621700
O           9.01957100     16.35239000      9.12910600
O           6.72869500     17.15262900      8.12038300
H           6.19887700     16.26411400      8.34771700
O           8.86810700     18.14462100      7.37382500
H           8.24149700     18.47306700      6.62165700
O           8.20641700     15.76142200      6.74076300
H           9.09019000     15.24080200      6.66109700
O          10.45359800     13.90466400      6.68079500
H          10.43587200     13.74971100      7.63597200
H          10.28745100     13.05424700      6.28309700
O          10.04314700     13.64808400      9.49901000
H          10.79705900     13.70348000     10.08584100
H           9.69951000     14.56785300      9.44321500
          29
 Energy =    -1176.88621180 a.u.  Frame:     6 Step:     6 Geom:     6
C           6.39954100     14.02014400     10.94415100
C           5.90034200     15.10493800     10.14701200
C           4.89147100     14.88185700      9.20515200
C           4.40411500     13.59251400      9.08286600
C           4.89493300     12.53303100      9.87552500
C           5.89399300     12.72474600     10.81485800
H           4.51992800     15.70398100      8.59590800
H           3.61852400     13.37921500      8.35801000
H           4.47009400     11.53810400      9.73780500
H           6.27122600     11.90740600     11.42129600
H           7.98386100     14.06343900     12.37840100
C           7.48423900     15.93305200     11.42737600
H           8.20566000     16.59773800     11.88939300
N           7.39675500     14.57204900     11.75696500
N           6.59577500     16.27180100     10.48713200
P           9.35980400     16.87463700      8.51978000
O           9.44571700     15.79099100      9.50794500
O           7.91312400     17.46437200      8.24092600
H           7.30010400     17.27856200      9.07974800
O          10.24237100     18.11909400      8.97434500
H          10.17848200     18.83617400      8.23621400
O           9.90114200     16.60580700      7.05338000
H           9.56400100     15.66325000      6.73979500
O           9.21634200     13.95101700      6.24926600
H           8.89004300     13.55155900      7.07940900
H          10.04295400     13.50209800      6.08087400
O           8.47912500     13.05140600      8.77659100
H           7.52704500     13.13662200      8.87758300
H           8.83929700     13.87041500      9.15230800
          29
 Energy =    -1176.88485140 a.u.  Frame:     7 Step:     7 Geom:     7
C           7.49363000     13.61157600     12.32493200
C           6.78257300     14.61908400     11.59077000
C           5.71969900     15.30729000     12.18360800
C           5.39211200     14.97659800     13.48667300
C           6.09597100     13.98371000     14.20176400
C           7.15225800     13.28706500     13.63942600
H           5.18211000     16.07130000     11.62526200
H           4.56965100     15.49049600     13.98343200
H           5.79240300     13.76544100     15.22596300
H           7.69044500     12.52464400     14.19211600
H           9.14689900     12.42627100     11.66909700
C           8.34427700     13.84097000     10.25031200
H           8.99334100     13.67257600      9.39446600
N           8.47896900     13.12953200     11.45457300
N           7.34448800     14.72155600     10.31330500
P           8.69086900     16.62922800      7.56951400
O           9.35342900     15.31911300      7.52243400
O           7.25614500     16.69861600      8.22655900
H           7.19329100     15.95247500      8.98384500
O           9.59230700     17.67439300      8.36487100
H           9.09316800     18.57459000      8.38278000
O           8.46337800     17.39358500      6.19301500
H           8.12892400     16.71104900      5.48011400
O           7.92397800     15.54696100      4.03575500
H           8.59676000     14.89320300      4.29816500
H           8.20199900     15.85721500      3.17882800
O          10.06337300     13.97778700      5.00271100
H          10.92535300     14.37596800      4.88839200
H           9.79821000     14.25772600      5.89732700
          29
 Energy =    -1176.88670230 a.u.  Frame:     8 Step:     8 Geom:     8
C           6.63532900     14.60376500     11.17030900
C           6.12067000     15.45262900     10.13240300
C           5.17017300     14.96601400      9.23012300
C           4.75611100     13.65426400      9.38190300
C           5.26140700     12.82866700     10.40878400
C           6.20208000     13.28430200     11.31724800
H           4.78249700     15.61077000      8.44367800
H           4.01570400     13.23927200      8.69816900
H           4.89432300     11.80414300     10.48293900
H           6.58599900     12.64705100     12.10782700
H           8.14556500     15.05992500     12.61269600
C           7.59742600     16.63715300     11.24939400
H           8.26210900     17.42959500     11.57456900
N           7.56118700     15.38173900     11.87457100
N           6.73856700     16.70551000     10.22658800
P           9.54793900     16.89918100      8.24961600
O           9.60769800     16.01978600      9.42286000
O           8.09883000     17.38428100      7.81141400
H           7.46870000     17.40693700      8.65348200
O          10.39018600     18.22559300      8.50029100
H          10.37002600     18.78139500      7.63218200
O          10.14559400     16.37055400      6.87946600
H           9.67948000     15.45715700      6.64838800
O           8.82985900     13.88779800      6.34496000
H           8.83685300     13.48119100      7.23299700
H           7.90812000     14.06743800      6.16819900
O           8.70397000     13.15834400      9.05053800
H           7.81421100     13.22979700      9.40207600
H           9.12939300     13.99576900      9.29234600
          29
 Energy =    -1176.88108530 a.u.  Frame:     9 Step:     9 Geom:     9
C           6.26601700     14.47304600     11.44301500
C           6.16649100     15.20122700     10.21164600
C           5.83202200     14.54054500      9.02525900
C           5.59681800     13.17871000      9.09820700
C           5.67562800     12.47366600     10.31858600
C           6.01005800     13.10167500     11.50641700
H           5.78334300     15.08504500      8.08481200
H           5.36498300     12.62579000      8.18636300
H           5.47399100     11.40282800     10.31434600
H           6.08002700     12.55580200     12.44035200
H           6.86525000     15.20693200     13.35885300
C           6.79647600     16.63917100     11.75053500
H           7.11368200     17.53901300     12.25680800
N           6.65338100     15.40972000     12.41037900
N           6.49204300     16.54280700     10.45411200
P           9.46216000     16.34448800      8.70271400
O           9.04221400     15.02982300      9.19270900
O           8.32066600     17.41721900      8.44047700
H           7.54191200     17.27829900      9.13751200
O          10.48166100     17.03145300      9.71453100
H          10.81866600     17.90294500      9.28026600
O          10.26314400     16.40201300      7.32911900
H           9.67735100     15.94511300      6.59187500
O           8.57046500     15.05815800      5.41528100
H           8.27740800     14.30523500      5.96294300
H           7.78625900     15.59430800      5.30502500
O           7.78301300     13.10006000      7.26850200
H           8.42518900     12.39079000      7.27885900
H           8.03968900     13.66414500      8.02050500
          29
 Energy =    -1176.88528860 a.u.  Frame:    10 Step:    10 Geom:    10
C           7.16683900     13.64143300     12.05464400
C           6.60394300     14.77952400     11.38590600
C           5.49284000     15.43662400     11.92315000
C           4.97104800     14.94536900     13.10677100
C           5.52968700     13.82422500     13.75772400
C           6.63006500     13.15551900     13.24863700
H           5.06870300     16.30098800     11.41564200
H           4.10526700     15.43015800     13.55727300
H           5.07545000     13.48200000     14.68805700
H           7.05674700     12.29463100     13.75197600
H           8.85116900     12.46650300     11.46118300
C           8.31218600     14.11030000     10.17074700
H           9.06914300     14.02533900      9.39466200
N           8.24908900     13.23223000     11.26574800
N           7.34571800     15.02799700     10.22559100
P           8.87753600     17.00014100      7.62392700
O           9.61827700     15.72844300      7.63826800
O           7.37564600     16.94888200      8.10008300
H           7.33749700     16.36028200      8.99333500
O           9.49271900     18.13865000      8.55639100
H          10.44416900     18.33214100      8.21516200
O           8.80445400     17.72544000      6.21270600
H           8.38560100     17.05749400      5.52361800
O           7.77744700     15.76674900      4.36402100
H           8.38439100     15.03888600      4.59758900
H           6.92016100     15.47184400      4.67036300
O           9.57306200     13.87105200      5.38645200
H          10.44161200     14.00827000      5.01186100
H           9.58954600     14.37890300      6.21852600
          29
 Energy =    -1176.85274970 a.u.  Frame:    11 Step:    11 Geom:    11
C           6.49617000     13.92629100     11.02569200
C           6.68236000     15.16863900     10.33279800
C           5.62054100     16.08586300     10.21439800
C           4.41464500     15.74187800     10.79934200
C           4.24045900     14.51347600     11.49184900
C           5.26537800     13.59028900     11.61623000
H           5.76118800     17.01885500      9.66601800
H           3.56536700     16.42213300     10.72869200
H           3.26505700     14.29999800     11.93037400
H           5.13026300     12.64873400     12.13906400
H           7.92484500     12.32975200     11.30240900
C           8.61095600     14.07306000     10.22176900
H           9.64202300     13.79539300      9.97852200
N           7.73376100     13.24874800     10.94497700
N           8.01270400     15.23051400      9.85149500
P           8.97175600     16.64626600      8.34458900
O          10.08256800     15.64949200      8.45262000
O           8.61567100     17.72560600      9.54623000
H           8.52526800     17.40413000     10.47167000
O           9.48262600     17.85845800      7.33787100
H           9.00045900     18.71794900      7.40667100
O           7.61455900     16.29342400      7.52738300
H           7.27210300     15.29625100      7.52837600
O           7.30036000     13.76246700      7.00600900
H           8.13073000     13.33847500      7.37460300
H           7.47287200     13.88845400      6.07218200
O           9.78269100     13.15469600      7.73595300
H          10.35717900     12.81916700      7.05999300
H          10.09544600     14.11155900      7.91223800
          29
 Energy =    -1176.83862590 a.u.  Frame:    12 Step:    12 Geom:    12
C           6.38492700     13.42121000     10.51962400
C           6.47219200     14.65139700      9.78638000
C           5.42443900     15.04873500      8.93178500
C           4.32280900     14.21747900      8.84717900
C           4.23964000     13.00468200      9.58466200
C           5.25749900     12.58538700     10.42400700
H           5.51376400     15.97261200      8.35413300
H           3.49098100     14.48499400      8.19476400
H           3.34411900     12.39204900      9.47327400
H           5.19737000     11.65554300     10.98058000
H           7.84722600     12.55983500     11.85433900
C           8.35417900     14.45992600     10.94570600
H           9.34487600     14.65026000     11.35815800
N           7.58887300     13.31966200     11.25089100
N           7.70704300     15.27472200     10.08114400
P           8.82191800     16.96482800      9.01012600
O           9.97358500     16.08520200      9.37156300
O           7.92558600     17.85820500     10.07296800
H           7.21087600     17.42565000     10.59218200
O           9.46388300     18.33927500      8.33970200
H           8.90808800     19.15385700      8.38754900
O           7.84480500     16.51506600      7.79558700
H           7.96366800     15.51059700      7.43628800
O           8.60394300     14.20927900      6.85539300
H           9.47121100     14.05876600      7.38012100
H           8.88879600     14.44768400      5.97348200
O          10.88402700     14.21010900      8.16279000
H          10.55232300     14.22351900      9.08548900
H          11.15736500     15.14949100      8.04013900
          29
 Energy =    -1176.84314450 a.u.  Frame:    13 Step:    13 Geom:    13
C           6.77899200     13.35869500     10.51463500
C           6.87901400     14.76837700     10.26331000
C           6.87820400     15.68359800     11.33514200
C           6.76647200     15.16829000     12.61354300
C           6.65732100     13.77141400     12.85277800
C           6.66332600     12.84908800     11.82050100
H           6.98744300     16.75377000     11.13989100
H           6.76624100     15.84263700     13.47082600
H           6.57197800     13.42794700     13.88450900
H           6.58722200     11.78169300     12.00290600
H           6.82652500     11.74445100      9.08176600
C           6.96015100     13.75486000      8.29191500
H           7.04540400     13.56635000      7.22228800
N           6.82726300     12.73472600      9.24924300
N           6.98403700     14.98017900      8.86786900
P           7.90558800     16.85897500      7.89556200
O           8.62770600     16.92494700      9.19656200
O           6.29929900     17.17845100      7.69372300
H           5.62994400     16.61155200      8.14319900
O           8.32158400     18.19232900      7.00335600
H           7.67982000     18.47502000      6.30794800
O           8.34701100     15.70710700      6.82800600
H           9.08629300     15.02413600      7.16283900
O           9.98627100     14.02631200      8.02394800
H          10.04821600     14.46297300      8.96137000
H          10.87575700     14.06119900      7.68054700
O          10.27618000     15.45892300     10.17355400
H          10.36991800     16.34458800      9.73852900
H           9.36683100     15.51743500     10.53974500
          29
 Energy =    -1176.86698440 a.u.  Frame:    14 Step:    14 Geom:    14
C           7.14388700     13.28876600     11.87036900
C           6.48070100     14.49158600     11.44501600
C           5.41557800     15.01866900     12.20072000
C           5.04614500     14.33806100     13.34744800
C           5.70749000     13.15010400     13.75998900
C           6.75736700     12.60782300     13.03819300
H           4.91450400     15.92929500     11.87701100
H           4.22637900     14.71352800     13.95993100
H           5.36955700     12.65997900     14.67340400
H           7.26262100     11.70045800     13.35328600
H           8.79100300     12.27347400     10.91463500
C           8.05963400     14.07361500      9.95100900
H           8.71989700     14.14407100      9.07651700
N           8.14408900     13.03996200     10.90682600
N           7.07829900     14.94625500     10.25155600
P           8.22384400     16.89563600      7.67457800
O           8.75792300     15.50441200      7.51725100
O           6.87649600     17.07027600      8.53894700
H           6.70561500     16.33459500      9.29951600
O           9.30680300     17.87967500      8.42253600
H           9.06921400     18.84145900      8.47958300
O           7.94355500     17.67228300      6.29861200
H           7.80706700     17.06038600      5.39652300
O           8.11655000     16.16930200      4.23331200
H           8.82713500     16.61690100      3.77068700
H           8.54424900     15.31342800      4.61899300
O           9.27294800     14.22630200      5.54000100
H           8.53621600     13.99125100      6.14073400
H           9.86523900     14.74846700      6.13282900
