%nproc=24
%mem=100GB
#p M062X/6-311+G(2d,p) nosymm em=GD3 counterpoise=4

Title Card Required

0 1
C          17.69833000     11.30488700      8.64136000         1
C          18.85222600     11.11517600      7.87704500         1
C          18.76561300     10.39551000      6.67784100         1
C          17.53141000      9.87465500      6.28834300         1
C          16.40667200     10.06854800      7.08489600         1
H          19.65113600     10.25582000      6.04747900         1
H          17.72668400     11.89950200      9.57433000         1
H          17.42751200      9.35421200      5.33269800         1
H          15.42041500      9.67296500      6.79930300         1
C          20.12659000     11.72448700      8.33153300         1
H          20.89063400     11.74256700      7.53646600         1
H          19.98576800     12.78759900      8.61074500         1
H          20.55247100     11.20702000      9.20038200         1
N          16.50580200     10.77725400      8.24664200         1
C          15.29847600     10.98238700      9.08113800         1
H          14.89530300      9.98333400      9.36379100         1
H          15.58722300     11.49088800     10.03837500         1
C          14.22010700     11.81361500      8.36616000         1
H          14.14240500     11.53429200      7.29106200         1
H          13.23187200     11.56055200      8.80331400         1
C          14.45398800     13.31740300      8.48516300         1
H          13.55726600     13.87612100      8.15022400         1
H          14.63415700     13.62300700      9.53279100         1
C          15.63538100     13.71578300      7.59922300         1
O          15.41251100     13.90604600      6.39436800         1
O          16.76239800     13.78044400      8.15075100         1
P          18.59196900     13.52786000      5.12531900         2
O          18.34415000     12.09280200      4.92726900         2
O          18.99607400     13.93835100      6.60722900         2
H          18.12115700     13.93473900      7.21121000         2
O          19.85204100     13.99244200      4.26765100         2
H          19.97060700     15.00719100      4.42725000         2
O          17.43593300     14.51441300      4.68618900         2
H          16.60206000     14.34462000      5.33736600         2
O          16.85167800     13.42629900     10.79038300         3
H          16.80323100     13.64600700      9.82242700         3
H          17.20893100     14.20178500     11.20260100         3 
O          15.30982000     11.37527900      5.11147900         4
H          15.16866000     12.27278200      5.46156500         4
H          16.17137500     11.45137700      4.68664600         4  




