%nproc=24
%mem=50GB
#p M062X/6-311+G(2d,p) nosymm em=GD3 counterpoise=4

Title Card Required

0 1
O           7.52493300      8.55190900      7.70322900      1
H           7.74412900      9.34495300      7.17566400      1
H           7.28000600      8.89865700      8.57335100      1     
O           6.99303900      9.64033500     10.26034400      2
H           7.74318100     10.29634900     10.28350400      2
H           6.20990100     10.17618100     10.19615700      2
O           8.45509100     10.82619000      6.34699900      3
H           8.61569700     11.59307200      6.93331600      3
H           9.31477400     10.39922400      6.30432100      3     
O          13.60378800     10.03500100      9.81178500      4
H          12.77443100     10.44571300      9.50094600      4
H          13.58710400      9.18198400      9.37069900      4 








