%mem=50GB
%nprocshared=24
#p M052X/6-31G* scrf=(smd,solvent=water)

Title Card Required

0 1
 C                 -2.48398000   -0.96064800   -1.17024400
 H                 -3.53690800   -1.10814800   -0.94401700
 H                 -2.36863600   -0.44504100   -2.12047200
 H                 -1.96324800   -1.91462500   -1.19126700
 C                 -2.61117700    1.19467400   -0.04656600
 H                 -3.66816200    0.98628200    0.10076000
 H                 -2.23364500    1.78826900    0.77976500
 H                 -2.45551900    1.71079200   -0.99086600
 C                 -2.03962300   -0.81819200    1.21886100
 H                 -1.46650400   -1.74146700    1.18583600
 H                 -1.68227200   -0.17666200    2.01786900
 H                 -3.09597900   -1.03310100    1.36090300
 C                 -0.41543400    0.09143500   -0.43096500
 H                 -0.40888300    0.56596400   -1.41159000
 H                  0.00176900   -0.91001900   -0.52518400
 C                  0.37896000    0.91522000    0.56743600
 H                  0.39468900    0.43023300    1.54304700
 H                 -0.07155900    1.90084500    0.69127400
 C                  1.81164200    1.09584700    0.06438000
 H                  2.34281700    1.76523400    0.74854500
 H                  1.81438600    1.58204100   -0.91295400
 N                 -1.88169800   -0.11203600   -0.09174200
 C                  2.65056500   -0.18449400   -0.02080600
 O                  2.42250000   -1.11009700    0.80805200
 O                  3.55547800   -0.21732600   -0.90580600

