%nproc=24
%mem=50GB
#p M062X/6-311+G(2d,p) nosymm em=GD3 counterpoise=4

Title Card Required

0 1
P          10.13086100      7.44911500      7.47456000      1
O          11.15321500      6.81341200      8.29832500      1
O           8.73997500      7.40761100      8.23734500      1
H           8.01817000      7.96195400      7.73661700      1
O          10.38225200      8.91622400      6.94902500      1
H          10.55828300      9.58684100      7.77861200      1
O           9.77018400      6.69905000      6.10434700      1
H          10.46219800      6.98263400      5.40229500			1
O           6.67216400      9.02304200      7.14036400      2
H           6.18033200      8.62141300      6.43312500      2
H           7.17017800      9.77239500      6.71437600      2     
O           8.20170500     10.86732800      5.94532300      3
H           8.35715000     11.58384000      6.60916000      3
H           9.00745800     10.34265600      6.01278100      3
O           6.62264700      9.28950200     10.09018900      4
H           6.49961900      9.18369400      9.14202800      4
H           7.22572700     10.05638300     10.15051000      4 

    






