%nproc=16
%mem=10GB
#p M062X/6-311+G(2d,p) nosymm em=GD3 counterpoise=2

Title Card Required

0 1
C           7.37655000     16.15353800     13.64678200					 1
C           6.40180200     15.29266400     14.14836800           1
C           6.42503400     15.00146000     11.96491200           1
N           7.38791400     15.96573400     12.26190600           1
H           7.98070200     16.44098500     11.62055900           1
H           8.02360700     16.84405000     14.14292500           1
H           6.08158800     15.13150000     15.15916200           1
H           6.20646200     14.65013900     10.96383200           1
N           5.82858000     14.59267700     13.09645700           1
P           3.46964200     12.46572300     11.25299100           2
O           4.49947500     12.83790200     10.29427000           2
O           3.78967000     12.59261400     12.80243900           2
H           4.50627300     13.35275400     12.96707500           2
O           2.13168000     13.29093000     11.00840800           2
H           1.42398400     12.97434100     11.68297600           2
O           2.92001900     10.96182500     11.18589900           2
H           3.53702100     10.37117200     11.75104900           2

