%nproc=24                                                          
%mem=50GB                                                          
#p M062X/6-311+G(2d,p) nosymm em=GD3 counterpoise=2                
                                                                   
Title Card Required                                                
                                                                   
0 1                                                                
C           5.14299000      1.27645400      7.80486300            1
C           5.68738300      1.14706600      9.09922300            1
C           6.83262500      1.86187400      9.42449900            1
C           7.42532600      2.68603200      8.45957300            1
C           6.83706700      2.82434200      7.21311500            1
H           7.25347500      1.81001500     10.43061600            1
H           4.23735900      0.70463900      7.50869500            1
H           8.32026200      3.26158100      8.70267600            1
H           7.23002700      3.51732500      6.46129700            1
C           4.94008200      0.33721600     10.08980900            1
H           4.01955900      0.89838200     10.38097900            1
H           4.60138000     -0.62957300      9.69362000            1
H           5.50163100      0.14422900     11.01200600            1
N           5.70318900      2.11907800      6.90216500            1
C           4.98749200      2.42135600      5.63792300            1
H           5.66536400      2.21721100      4.78159900            1
H           4.10557700      1.73444300      5.53534400            1
C           4.49123800      3.88192700      5.61345500            1
H           5.31922700      4.58418800      5.84610900            1
H           4.16406600      4.12219100      4.58176400            1
C           3.34377200      4.13627900      6.58791800            1
H           3.01317200      5.18831400      6.54355400            1
H           2.46063300      3.51858000      6.35273200            1
C           3.84138300      3.84735400      8.02423100            1
O           4.69250400      4.59025500      8.49844800            1
O           3.41075700      2.78148100      8.54553700            1
O           2.24601900      1.07625300      6.98728100            2
H           1.39225700      0.86493400      7.32979400            2
H           2.60418900      1.79657500      7.61118600            2 

                                                     