          16
 Energy =  -1288.35135230 a.u.  #Cluster:    1
P           4.80326000      6.25044300      4.59212100
O           5.15011300      5.02353000      5.29571900
O           3.84517200      7.16995000      5.46183100
H           3.56695200      7.98191100      4.89410500
O           5.97865600      7.18951100      4.07898000
H           6.76213100      7.15712100      4.75234200
O           3.94932300      6.10197400      3.24919300
H           4.56257400      5.72764100      2.51813300
P           8.49313500      5.73336600      6.87252800
O           8.14289300      6.96312900      6.17573600
O           7.31993400      4.79214100      7.38709400
H           6.53436100      4.82589900      6.71646000
O           9.44696100      4.81786700      5.99396300
H           9.73204200      4.00579300      6.55797800
O           9.35309800      5.87661000      8.21212500
H           8.73939800      6.23311600      8.95169400
          16
 Energy =  -1288.35043600 a.u.  #Cluster:    2
P           4.77055500      6.76938900      5.07495100
O           5.05659200      6.68177600      6.50035400
O           4.30947600      5.37085800      4.48412400
H           4.08878200      5.49532300      3.48618500
O           3.55533000      7.70579000      4.62809900
H           3.83901300      8.68274100      4.75272100
O           5.91628600      7.30942300      4.11276500
H           6.83576200      6.99928700      4.46730100
P           8.62216200      5.37572300      6.41424600
O           8.53583200      6.36889300      5.35242400
O           7.62498200      5.50719600      7.64655200
H           6.71999900      5.88076700      7.31709400
O           8.44938800      3.90204900      5.85205400
H           8.54828400      3.24085300      6.63516000
O          10.01568600      5.24686200      7.18540400
H          10.13187400      6.07307100      7.78056800
          16
 Energy =  -1288.35030570 a.u.  #Cluster:    3
P           4.70417900      6.51892100      4.92216600
O           4.83791100      5.45147900      5.90803700
O           3.28909400      7.23416800      5.01966800
H           3.27009100      8.00596600      4.33742600
O           5.69666600      7.75422500      4.94642600
H           6.66379500      7.38067300      5.05086400
O           4.81319300      6.07386200      3.38815800
H           4.59333100      5.08128100      3.31415200
P           8.58517700      5.55423200      6.59615200
O           8.36342900      6.39809700      5.43019900
O           7.51067600      4.42998000      6.92996500
H           6.57348800      4.74780100      6.63573100
O           9.92707500      4.68730300      6.62586500
H           9.82374900      3.91030100      5.96592000
O           8.75016200      6.41459200      7.91912000
H           8.95798800      5.77712200      8.70015300
          16
 Energy =  -1288.34898870 a.u.  #Cluster:    4
P           4.75215000      6.58428800      4.93948500
O           4.86648400      5.73234600      6.11844600
O           3.42259200      7.45200300      4.96012600
H           3.41889600      8.05220300      4.12146100
O           5.85256500      7.69011800      4.65456000
H           6.78684400      7.25167100      4.78218300
O           4.70102500      5.83358800      3.52689900
H           4.48510100      4.84893700      3.68020200
P           8.58958800      5.48321000      6.55725100
O           8.47782700      6.33200400      5.37573300
O           7.49301700      4.37225700      6.83724500
H           6.55734800      4.80751300      6.70954400
O           9.92350000      4.62219700      6.54658200
H           9.92602400      4.02557600      7.38793600
O           8.62901000      6.23708200      7.96855900
H           8.82803300      7.22501100      7.81379000
          16
 Energy =  -1288.34770940 a.u.  #Cluster:    5
P           4.72260900      6.38153000      4.85838100
O           4.84570300      5.56416100      6.06135000
O           3.23995500      6.86252600      4.51450100
H           2.98181900      7.59973100      5.17944300
O           5.54075700      7.73754200      4.79979100
H           6.50726500      7.53900500      5.13424700
O           5.13487000      5.68149200      3.48883900
H           4.57426500      4.82245000      3.40177000
P           8.58193200      5.77807200      6.66058700
O           8.24346100      7.05052900      6.03842900
O           7.45320300      5.01746800      7.48243900
H           6.53530700      5.16697000      7.02963300
O           9.14253300      4.73903900      5.60005200
H           9.43349400      3.88785500      6.10072700
O           9.76404300      5.78372400      7.73684000
H           9.41878700      6.22790500      8.59297600
          16
 Energy =  -1288.34759760 a.u.  #Cluster:    6
P           4.81703400      6.42244100      4.83181700
O           4.87695200      5.52324900      5.97831500
O           3.33100200      6.79721800      4.42138800
H           3.38419400      7.42829800      3.60242200
O           5.49006300      7.85674700      4.96797900
H           6.43123100      7.74006000      5.37591900
O           5.40324800      5.86628700      3.45203200
H           6.20280400      5.26040000      3.64447000
P           8.53960400      5.75283000      6.72309400
O           8.23311400      7.07387600      6.19651000
O           7.42643000      5.02647600      7.59644800
H           6.50393900      5.16818100      7.15250700
O           8.92111500      4.74275100      5.55737200
H           9.24630800      3.86201900      5.97457600
O           9.80432400      5.61260600      7.68710000
H           9.55864200      6.01656100      8.59805500
