          16
 G =       -0.797778 Gcorr = 0.040911 a.u. Nimag =   0 Frame:     1 Step:     1 Geom:     1
P           4.77055500      6.76938900      5.07495100
O           5.05659200      6.68177600      6.50035400
O           4.30947600      5.37085800      4.48412400
H           4.08878200      5.49532300      3.48618500
O           3.55533000      7.70579000      4.62809900
H           3.83901300      8.68274100      4.75272100
O           5.91628600      7.30942300      4.11276500
H           6.83576200      6.99928700      4.46730100
P           8.62216200      5.37572300      6.41424600
O           8.53583200      6.36889300      5.35242400
O           7.62498200      5.50719600      7.64655200
H           6.71999900      5.88076700      7.31709400
O           8.44938800      3.90204900      5.85205400
H           8.54828400      3.24085300      6.63516000
O          10.01568600      5.24686200      7.18540400
H          10.13187400      6.07307100      7.78056800
          16
 G =       -0.798372 Gcorr = 0.040750 a.u. Nimag =   0 Frame:     2 Step:     2 Geom:     2
P           4.71879100      6.46778200      4.91753800
O           4.81138100      5.63662800      6.11233700
O           3.23082900      6.90977000      4.58887400
H           3.26040200      7.48786700      3.73058600
O           5.48108400      7.86309300      4.91414600
H           6.44617500      7.70887000      5.24745800
O           5.17117200      5.79521500      3.53915800
H           5.91635200      5.12078600      3.72090900
P           8.52809700      5.69152700      6.59404200
O           8.26102800      6.97763800      5.96875800
O           7.43471800      5.10955200      7.59212400
H           6.49436400      5.27167100      7.19573000
O           8.78383300      4.56246400      5.50573200
H           9.08641700      3.70451300      5.98318600
O           9.84069300      5.56252900      7.49372300
H           9.67466700      6.06009600      8.37570000
          16
 G =       -0.798363 Gcorr = 0.040758 a.u. Nimag =   0 Frame:     3 Step:     3 Geom:     3
P           4.72017900      6.43052900      4.90332800
O           4.81829100      5.60126100      6.09901800
O           3.22735600      6.84692300      4.56355700
H           3.25287800      7.42216000      3.70319300
O           5.45822800      7.83872300      4.90531900
H           6.42514300      7.69974600      5.24042300
O           5.19466800      5.76562600      3.52858100
H           5.94631300      5.10035800      3.71659300
P           8.53374600      5.71739600      6.59758900
O           8.24951500      6.99701000      5.96637300
O           7.44464500      5.12202700      7.59222700
H           6.50403500      5.26783100      7.19001700
O           8.81244300      4.58827700      5.51500500
H           9.12779400      3.73763400      5.99750500
O           9.84374100      5.61178100      7.50415000
H           9.67102700      6.12272200      8.37712200
          16
 G =       -0.798394 Gcorr = 0.040728 a.u. Nimag =   0 Frame:     4 Step:     4 Geom:     4
P           4.68857300      6.39078600      4.90889000
O           4.78839100      5.58466400      6.12012000
O           3.19378400      6.78820600      4.55513900
H           3.21822700      7.34776500      3.68454000
O           5.41499400      7.80497900      4.88844200
H           6.38029900      7.68103900      5.23368100
O           5.17435800      5.70518500      3.54840700
H           5.93422300      5.05350400      3.75082300
P           8.49874600      5.73515400      6.62925100
O           8.20684200      7.00658000      5.98530300
O           7.41284700      5.14315300      7.62965200
H           6.47181400      5.27597100      7.22404400
O           8.78419100      4.59731600      5.55751500
H           9.10431900      3.75313300      6.04769600
O           9.80908700      5.64647800      7.53705500
H           9.62930700      6.15609000      8.40944300
          16
 G =       -0.798380 Gcorr = 0.040741 a.u. Nimag =   0 Frame:     5 Step:     5 Geom:     5
P           4.66890600      6.43228700      4.96420600
O           4.77323500      5.54341700      6.11575200
O           3.17253700      6.85075700      4.64297600
H           3.19420400      7.47368600      3.81641300
O           5.39280500      7.84577400      5.04103900
H           6.36046000      7.69919600      5.37049200
O           5.15279900      5.84463300      3.55801800
H           5.90918500      5.17609800      3.71336800
P           8.48635500      5.66266400      6.62177500
O           8.19074900      6.97422300      6.06622200
O           7.40294800      5.00008900      7.57970400
H           6.46073100      5.16041100      7.18704500
O           8.77448800      4.60189600      5.47446800
H           9.10235400      3.72867800      5.90494200
O           9.79752500      5.51674300      7.52101800
H           9.61072300      5.94944700      8.43256300
          16
 G =       -0.796647 Gcorr = 0.039526 a.u. Nimag =   0 Frame:     6 Step:     6 Geom:     6
P           4.72260900      6.38153000      4.85838100
O           4.84570300      5.56416100      6.06135000
O           3.23995500      6.86252600      4.51450100
H           2.98181900      7.59973100      5.17944300
O           5.54075700      7.73754200      4.79979100
H           6.50726500      7.53900500      5.13424700
O           5.13487000      5.68149200      3.48883900
H           4.57426500      4.82245000      3.40177000
P           8.58193200      5.77807200      6.66058700
O           8.24346100      7.05052900      6.03842900
O           7.45320300      5.01746800      7.48243900
H           6.53530700      5.16697000      7.02963300
O           9.14253300      4.73903900      5.60005200
H           9.43349400      3.88785500      6.10072700
O           9.76404300      5.78372400      7.73684000
H           9.41878700      6.22790500      8.59297600
          16
 G =       -0.798374 Gcorr = 0.040747 a.u. Nimag =   0 Frame:     7 Step:     7 Geom:     7
P           4.68229200      6.46757300      4.99379700
O           4.82011500      5.66883300      6.20622200
O           3.18977900      6.93868200      4.73318700
H           3.18589200      7.48984500      3.85689200
O           5.47706700      7.84187900      4.90728200
H           6.45571400      7.67127400      5.18939700
O           5.04227100      5.74451800      3.61373100
H           5.77455600      5.05142100      3.77644400
P           8.55857800      5.63677600      6.47537000
O           8.29082500      6.91328100      5.83098500
O           7.51043300      5.11439600      7.55186900
H           6.55324900      5.29114600      7.20500200
O           8.71681400      4.47240000      5.40585200
H           9.02578600      3.61936500      5.88789200
O           9.91826500      5.49248700      7.29960000
H           9.81836900      6.01612600      8.17648300
          16
 G =       -0.798365 Gcorr = 0.040756 a.u. Nimag =   0 Frame:     8 Step:     9 Geom:     9
P           4.76386400      6.42422400      4.89476900
O           4.85712000      5.55434100      6.06167000
O           3.26764300      6.80559600      4.52966200
H           3.29689600      7.41583400      3.69401800
O           5.45515200      7.85399400      4.96771200
H           6.41826400      7.73276800      5.32042400
O           5.29682800      5.82664100      3.51059300
H           6.05366800      5.16675500      3.69664800
P           8.54890300      5.77714800      6.68245500
O           8.24228100      7.06213800      6.07325800
O           7.44846200      5.11888800      7.62386300
H           6.51677400      5.24416800      7.19521000
O           8.90448400      4.68729400      5.58245600
H           9.22990200      3.83453600      6.05416700
O           9.82997100      5.69433800      7.63180900
H           9.59979100      6.15134000      8.52129000
          16
 G =       -0.798479 Gcorr = 0.040641 a.u. Nimag =   0 Frame:     9 Step:    10 Geom:    10
P           4.81703400      6.42244100      4.83181700
O           4.87695200      5.52324900      5.97831500
O           3.33100200      6.79721800      4.42138800
H           3.38419400      7.42829800      3.60242200
O           5.49006300      7.85674700      4.96797900
H           6.43123100      7.74006000      5.37591900
O           5.40324800      5.86628700      3.45203200
H           6.20280400      5.26040000      3.64447000
P           8.53960400      5.75283000      6.72309400
O           8.23311400      7.07387600      6.19651000
O           7.42643000      5.02647600      7.59644800
H           6.50393900      5.16818100      7.15250700
O           8.92111500      4.74275100      5.55737200
H           9.24630800      3.86201900      5.97457600
O           9.80432400      5.61260600      7.68710000
H           9.55864200      6.01656100      8.59805500
          16
 G =       -0.798367 Gcorr = 0.040755 a.u. Nimag =   0 Frame:    10 Step:    11 Geom:    11
P           4.71370500      6.39997000      4.88816700
O           4.81636500      5.57612800      6.08718800
O           3.21770000      6.79906100      4.54171700
H           3.24023700      7.37362300      3.68082600
O           5.43672600      7.81600200      4.88744900
H           6.40300200      7.68936800      5.22889300
O           5.20007900      5.73532500      3.51750600
H           5.95970300      5.08049300      3.71049400
P           8.52511300      5.73692600      6.60599100
O           8.23039700      7.01143600      5.96935500
O           7.43856600      5.13389300      7.59892400
H           6.49805000      5.26649300      7.19210000
O           8.81948900      4.60725100      5.52814700
H           9.13868100      3.76042400      6.01479800
O           9.83264400      5.64787300      7.51789100
H           9.64954500      6.15573600      8.39055500
          16
 G =       -0.798441 Gcorr = 0.040681 a.u. Nimag =   0 Frame:    11 Step:    12 Geom:    12
P           4.65086300      6.50812500      4.98910100
O           4.74412700      5.62844700      6.14851500
O           3.16014600      6.94501100      4.66598300
H           3.18918900      7.55706900      3.83161300
O           5.39495500      7.91180900      5.05119900
H           6.35983100      7.75545300      5.38396100
O           5.12367800      5.90008100      3.58774000
H           5.87695900      5.22928000      3.74746100
P           8.45630700      5.70626900      6.65757000
O           8.18058700      7.01518400      6.08580300
O           7.36455700      5.07387800      7.62641400
H           6.42464400      5.23960100      7.23057500
O           8.72473000      4.62644600      5.52321100
H           9.03170100      3.75120100      5.96458900
O           9.76706200      5.55059900      7.55573700
H           9.59066500      6.00154900      8.46052900
          16
 G =       -0.797677 Gcorr = 0.040797 a.u. Nimag =   0 Frame:    12 Step:    13 Geom:    13
P           4.70417900      6.51892100      4.92216600
O           4.83791100      5.45147900      5.90803700
O           3.28909400      7.23416800      5.01966800
H           3.27009100      8.00596600      4.33742600
O           5.69666600      7.75422500      4.94642600
H           6.66379500      7.38067300      5.05086400
O           4.81319300      6.07386200      3.38815800
H           4.59333100      5.08128100      3.31415200
P           8.58517700      5.55423200      6.59615200
O           8.36342900      6.39809700      5.43019900
O           7.51067600      4.42998000      6.92996500
H           6.57348800      4.74780100      6.63573100
O           9.92707500      4.68730300      6.62586500
H           9.82374900      3.91030100      5.96592000
O           8.75016200      6.41459200      7.91912000
H           8.95798800      5.77712200      8.70015300
          16
 G =       -0.797855 Gcorr = 0.040335 a.u. Nimag =   0 Frame:    13 Step:    14 Geom:    14
P           4.72428400      6.61421400      4.95737000
O           4.82563000      5.73168200      6.11484400
O           3.38878000      7.47275800      4.97935800
H           3.39398500      8.09381000      4.15603300
O           5.82168100      7.73429900      4.72044800
H           6.75674000      7.29699400      4.84628500
O           4.70037600      5.90130200      3.52454400
H           4.49754100      4.90975800      3.64862900
P           8.54675300      5.47556500      6.58306000
O           8.44362300      6.35964200      5.42700000
O           7.44679900      4.35902900      6.82453900
H           6.51259900      4.79810900      6.69942200
O           9.87931200      4.61253000      6.55377100
H           9.87468600      3.98845200      7.37475000
O           8.57852800      6.18692200      8.01644100
H           8.79868800      7.17494200      7.89350800
          16
 G =       -0.797591 Gcorr = 0.040883 a.u. Nimag =   0 Frame:    14 Step:    15 Geom:    15
P           4.73289300      6.57875500      4.91240400
O           4.82701100      5.60488400      5.99500800
O           3.38566700      7.41690400      4.99250200
H           3.39741300      8.11876700      4.23812800
O           5.82052800      7.72283000      4.77289900
H           6.75894500      7.28159300      4.87578100
O           4.73327600      5.97885400      3.42815100
H           4.43167200      5.00571300      3.46366300
P           8.59917300      5.46354700      6.52381800
O           8.38973900      6.20129500      5.28572500
O           7.45372700      4.47715800      7.01813600
H           6.53268600      4.84195600      6.72678700
O           9.86482700      4.49042100      6.58938500
H           9.66897700      3.66756800      6.01069700
O           8.90091200      6.43556100      7.74109200
H           9.09255900      5.86419500      8.57582600
          16
 G =       -0.797933 Gcorr = 0.040257 a.u. Nimag =   0 Frame:    15 Step:    16 Geom:    16
P           4.75215000      6.58428800      4.93948500
O           4.86648400      5.73234600      6.11844600
O           3.42259200      7.45200300      4.96012600
H           3.41889600      8.05220300      4.12146100
O           5.85256500      7.69011800      4.65456000
H           6.78684400      7.25167100      4.78218300
O           4.70102500      5.83358800      3.52689900
H           4.48510100      4.84893700      3.68020200
P           8.58958800      5.48321000      6.55725100
O           8.47782700      6.33200400      5.37573300
O           7.49301700      4.37225700      6.83724500
H           6.55734800      4.80751300      6.70954400
O           9.92350000      4.62219700      6.54658200
H           9.92602400      4.02557600      7.38793600
O           8.62901000      6.23708200      7.96855900
H           8.82803300      7.22501100      7.81379000
          16
 G =       -0.798394 Gcorr = 0.040728 a.u. Nimag =   0 Frame:    16 Step:    17 Geom:    17
P           4.75945300      6.41383800      4.82221400
O           4.76754000      5.61009700      6.03910000
O           3.29709600      6.83134700      4.36987400
H           3.38711500      7.39083600      3.50350200
O           5.50585400      7.81750300      4.84647400
H           6.44482800      7.68116000      5.25384300
O           5.32387000      5.71691400      3.49834800
H           6.05946800      5.05536200      3.75210700
P           8.43739000      5.71257500      6.79525700
O           8.20775100      6.98386900      6.12634000
O           7.27816300      5.14148400      7.72282900
H           6.36843600      5.28549100      7.25448400
O           8.77892500      4.56463900      5.75107600
H           9.05391000      3.71925900      6.26601000
O           9.68191700      5.61182900      7.79022900
H           9.44828900      6.12379900      8.64831400
          16
 G =       -0.798070 Gcorr = 0.040585 a.u. Nimag =   0 Frame:    17 Step:    18 Geom:    18
P           4.81233900      6.27305900      4.59742500
O           5.15803900      5.05577000      5.31804000
O           3.87543400      7.21669800      5.46427400
H           3.59534700      8.02053800      4.88596100
O           5.98948900      7.19129800      4.05109900
H           6.78020100      7.16598500      4.71579200
O           3.93847100      6.10848900      3.26936000
H           4.54125900      5.72609500      2.53346400
P           8.52028100      5.76238700      6.84878200
O           8.17933700      6.98085600      6.12798400
O           7.33949200      4.85087300      7.39831000
H           6.54884200      4.87666800      6.73309100
O           9.45086000      4.81372600      5.98074300
H           9.72579600      4.00735200      6.55791700
O           9.39755300      5.92366700      8.17503800
H           8.79726300      6.30653900      8.91272300
          16
 G =       -0.798176 Gcorr = 0.040479 a.u. Nimag =   0 Frame:    18 Step:    19 Geom:    19
P           4.80326000      6.25044300      4.59212100
O           5.15011300      5.02353000      5.29571900
O           3.84517200      7.16995000      5.46183100
H           3.56695200      7.98191100      4.89410500
O           5.97865600      7.18951100      4.07898000
H           6.76213100      7.15712100      4.75234200
O           3.94932300      6.10197400      3.24919300
H           4.56257400      5.72764100      2.51813300
P           8.49313500      5.73336600      6.87252800
O           8.14289300      6.96312900      6.17573600
O           7.31993400      4.79214100      7.38709400
H           6.53436100      4.82589900      6.71646000
O           9.44696100      4.81786700      5.99396300
H           9.73204200      4.00579300      6.55797800
O           9.35309800      5.87661000      8.21212500
H           8.73939800      6.23311600      8.95169400
          16
 G =       -0.798149 Gcorr = 0.040506 a.u. Nimag =   0 Frame:    19 Step:    20 Geom:    20
P           4.83973200      6.20895200      4.61104200
O           5.21588600      5.00167600      5.33328800
O           3.88265200      7.13211500      5.47796300
H           3.58408600      7.92881800      4.89914000
O           5.99282300      7.15411500      4.05967100
H           6.78722600      7.14700000      4.72067100
O           3.96639600      6.02071300      3.28563200
H           4.57453300      5.64535800      2.55076200
P           8.56748100      5.79526200      6.85024200
O           8.19087800      7.00290400      6.12889300
O           7.41491000      4.84808900      7.39919700
H           6.62042800      4.85629300      6.73824900
O           9.52644900      4.87423200      5.98317700
H           9.82840600      4.07914100      6.56238600
O           9.43919900      5.98296200      8.17679100
H           8.82892400      6.35237300      8.91290100
          16
 G =       -0.798136 Gcorr = 0.040520 a.u. Nimag =   0 Frame:    20 Step:    21 Geom:    21
P           4.78322100      6.28022600      4.65219700
O           5.16882300      5.04893400      5.32742300
O           3.79381800      7.14691900      5.54083100
H           3.49094100      7.96308900      4.99196200
O           5.92812600      7.26963500      4.16494600
H           6.71378800      7.24178800      4.83569900
O           3.93719700      6.13564700      3.30384400
H           4.56528200      5.80560600      2.56404800
P           8.48488400      5.82409200      6.92718700
O           8.10014300      7.05706200      6.25461200
O           7.33887600      4.83805200      7.41854900
H           6.55401100      4.86268200      6.74663800
O           9.46795100      4.95531500      6.03350700
H           9.77382800      4.13973600      6.58140500
O           9.33665800      5.96491000      8.27232200
H           8.71245600      6.29630900      9.01483100
