          28
 Energy =     -0.05639600 a.u.  #Cluster:    1
C          16.03974400     18.42838500      4.91026100
H          16.75496300     17.61261100      4.73248700
H          16.55904000     19.39041900      4.80475200
H          15.70673700     18.34315800      5.97812200
C          15.32857400     18.42689900      2.57046900
H          16.05749700     17.63264500      2.34000100
H          14.48348600     18.31641400      1.86534700
H          15.80443200     19.40066100      2.37376900
C          14.19648200     17.00126700      4.20202600
H          13.80387100     16.90048000      5.24320400
H          13.28628400     16.87400800      3.56931600
H          14.88385700     16.16988100      4.01241000
C          13.91722900     19.49093500      4.30299000
H          14.48329900     20.43674700      4.18835000
H          13.64512200     19.42569500      5.39635500
C          12.63759100     19.51995700      3.45431800
H          12.59798500     18.68219700      2.72729000
H          12.60714300     20.44439200      2.84820000
C          11.39490200     19.43446300      4.34099700
H          10.47029000     19.43810800      3.74201300
H          11.32345200     20.27621300      5.04569200
N          14.85233200     18.33102100      3.99218000
C          11.46642000     18.09158500      5.12040300
O          11.40785400     17.06278900      4.44703000
O          11.67063700     18.18937000      6.34859000
O          14.11885300     18.23874000      7.22500600
H          14.05045100     18.16039500      8.16613700
H          13.15148600     18.18059000      6.91228600
          28
 Energy =     -0.05639500 a.u.  #Cluster:    2
C          15.92209600     18.50395000      4.99420800
H          16.67062700     17.70309800      4.90681400
H          16.42363400     19.47807700      4.92849000
H          15.48706500     18.41168800      6.02639300
C          15.45327800     18.47240000      2.59385100
H          16.21403000     17.69038800      2.43510900
H          14.68562200     18.35638300      1.80762200
H          15.93404700     19.45333600      2.45068300
C          14.21145400     17.00937100      4.10754400
H          13.74759000     16.88625100      5.12431400
H          13.37095200     16.85483300      3.40463000
H          14.94475700     16.20411800      3.98509100
C          13.83885800     19.49006800      4.16474500
H          14.36497600     20.45583900      4.03574800
H          13.50810000     19.46125600      5.24984800
C          12.60913400     19.41453000      3.24631600
H          12.64845900     18.53496200      2.57302300
H          12.58035100     20.29893300      2.58245700
C          11.31180100     19.33507500      4.05675500
H          10.44518400     19.12474600      3.41069700
H          11.09848500     20.27488400      4.58966200
N          14.83863500     18.36209900      3.96096500
C          11.47700000     18.18210000      5.07992600
O          11.32421300     17.03256600      4.67932000
O          11.87855000     18.55173600      6.21135200
O          14.05945300     17.51834900      7.10541800
H          13.87528700     17.06926400      7.91625800
H          13.14638500     17.87972200      6.81276400
          28
 Energy =     -0.05576000 a.u.  #Cluster:    3
C          16.00678600     18.36875800      4.88155000
H          16.70218400     17.53572100      4.70290500
H          16.55348300     19.31750900      4.80232500
H          15.65251600     18.26538000      5.94160600
C          15.33472700     18.44919500      2.53037000
H          16.05454300     17.65017700      2.28776200
H          14.49967100     18.37410200      1.80945800
H          15.83017300     19.41993400      2.37046800
C          14.15231500     16.99508500      4.10046100
H          13.79404600     16.84826200      5.15282600
H          13.21876700     16.92214500      3.49781000
H          14.81348900     16.15955500      3.84883300
C          13.91522300     19.48651400      4.27028700
H          14.49354600     20.42657800      4.16894900
H          13.64401800     19.40742800      5.36173600
C          12.63743400     19.54507600      3.41857600
H          12.57921300     18.70321000      2.69783500
H          12.63301500     20.46588200      2.80640500
C          11.38797800     19.49798700      4.30009500
H          10.46795000     19.46676400      3.69538900
H          11.30907600     20.37454500      4.96082600
N          14.83402400     18.31844600      3.94089000
C          11.46730300     18.19972100      5.14862400
O          11.38879700     17.13364500      4.53918900
O          11.71247400     18.36964100      6.36337800
O          14.09806100     17.66707000      7.10448800
H          14.01273200     17.27479800      7.96135600
H          13.13647300     17.90689400      6.85560400
          28
 Energy =     -0.05352300 a.u.  #Cluster:    4
C          15.95157100     18.35108100      4.98327100
H          16.65380700     17.50950400      4.89642000
H          16.50437600     19.29335500      4.87137700
H          15.54298100     18.32270000      6.02861800
C          15.40574800     18.26099200      2.60006000
H          16.12288800     17.43669700      2.45295300
H          14.60800000     18.14703100      1.84281600
H          15.92632900     19.21072600      2.39868000
C          14.12833100     16.93406800      4.20638800
H          13.69603000     16.86983900      5.23485700
H          13.23715400     16.81588300      3.54728300
H          14.79853800     16.07947300      4.06411000
C          13.90721900     19.43471200      4.17802900
H          14.49874300     20.35993700      4.02767900
H          13.58400500     19.44892200      5.25775400
C          12.66948700     19.43070500      3.26768100
H          12.64138500     18.54057500      2.60569500
H          12.69390200     20.30625300      2.59269800
C          11.38358700     19.44471300      4.09562300
H          10.48986300     19.37790200      3.45540900
H          11.28169800     20.36178700      4.69500200
N          14.82989200     18.23895400      3.98778600
C          11.41436000     18.20184200      5.02887400
O          11.36165700     17.10095000      4.48045700
O          11.59128800     18.44565000      6.24060500
O          13.96626700     18.11259100      7.26977900
H          13.82551200     17.95261900      8.19210400
H          13.02540700     18.20056700      6.89799400
          28
 Energy =     -0.05001000 a.u.  #Cluster:    5
C          15.96453300     18.26260200      4.98154300
H          16.65054800     17.40991100      4.87832300
H          16.53630200     19.19626600      4.89509900
H          15.55062600     18.21850600      6.02536600
C          15.42942800     18.21449400      2.59491600
H          16.09329400     17.34957000      2.43171400
H          14.63090800     18.17160700      1.83161300
H          16.01180700     19.13296600      2.41841000
C          14.09814400     16.91404000      4.18010000
H          13.56910800     16.90121800      5.16700800
H          13.28993000     16.77874800      3.43447700
H          14.76595800     16.04473400      4.14911600
C          13.96134900     19.42090200      4.17612500
H          14.57586700     20.32811700      4.00858500
H          13.65988600     19.45254400      5.26214000
C          12.70888300     19.44444900      3.28687500
H          12.61997900     18.52881500      2.66645700
H          12.76617600     20.28744500      2.57353500
C          11.44101300     19.56269800      4.13436000
H          10.53421900     19.53024900      3.51010000
H          11.40543900     20.50282900      4.70502400
N          14.84554400     18.19774900      3.97943700
C          11.41215200     18.35093100      5.10840000
O          11.24832200     17.24042900      4.60737100
O          11.65643200     18.62409900      6.30411200
O          13.99621200     18.00741200      7.25228400
H          13.86075500     17.79807300      8.16494500
H          13.05720900     18.20862500      6.91256700
          28
 Energy =     -0.04889100 a.u.  #Cluster:    6
C          15.94900800     18.48493400      5.09083100
H          16.69984800     17.68320000      5.04829300
H          16.45528000     19.45604300      5.00856900
H          15.48261500     18.43548400      6.11209300
C          15.55069200     18.34111100      2.68138600
H          16.28541600     17.52568000      2.57785100
H          14.80074400     18.21923800      1.87836600
H          16.07155900     19.29683500      2.51036100
C          14.23358900     16.98198700      4.22861200
H          13.65315800     16.95258000      5.18575300
H          13.47989600     16.76917600      3.44490600
H          14.96418200     16.16462900      4.25711100
C          13.91312700     19.47072700      4.14906400
H          14.46744900     20.41727400      3.98993100
H          13.55074800     19.50462600      5.21633000
C          12.71327700     19.37984300      3.19406500
H          12.72671800     18.44636500      2.59435700
H          12.74733500     20.20832900      2.46255200
C          11.39531300     19.42130900      3.96915100
H          10.52924200     19.30518700      3.29859900
H          11.25809300     20.36925900      4.51072400
N          14.89453300     18.31303000      4.03295200
C          11.40312200     18.23436900      4.97352600
O          11.34845700     17.10317900      4.49563300
O          11.56236000     18.55342700      6.17218700
O          13.88496100     18.13564400      7.26044300
H          13.71556400     17.93878900      8.17017100
H          12.95373600     18.25777800      6.86618700
