          28
 G =       -0.056374 Gcorr = 0.184210 a.u. Nimag =   0 Frame:     1 Step:     1 Geom:     1
C          16.02050500     18.23944100      4.95727000
H          16.68097200     17.36903200      4.83580200
H          16.61053500     19.15766700      4.83454900
H          15.64715100     18.22059600      6.01500900
C          15.38875300     18.19302100      2.59525000
H          16.06530000     17.34015300      2.42155000
H          14.56164200     18.11440200      1.86499900
H          15.94025400     19.12162000      2.37873600
C          14.10319700     16.91905000      4.23858500
H          13.67117100     16.88845700      5.26845100
H          13.20677400     16.83164800      3.57987600
H          14.73415400     16.03388500      4.10445000
C          14.00151300     19.42421800      4.23390600
H          14.63782600     20.32210600      4.10343700
H          13.68950400     19.42323900      5.31854600
C          12.75605900     19.50910300      3.33934000
H          12.67944600     18.64644300      2.64513200
H          12.81318100     20.40703700      2.69642000
C          11.48186900     19.55008000      4.18344800
H          10.58020200     19.59369900      3.55196000
H          11.44835800     20.42415900      4.85062500
N          14.86011000     18.18923400      4.00160400
C          11.43021600     18.24014100      5.01853000
O          11.32078000     17.19012800      4.38545300
O          11.59898500     18.37588300      6.24848100
O          14.01479500     18.28053200      7.20741200
H          13.91040300     18.24447900      8.14784100
H          13.05636300     18.28057600      6.86334000
          28
 G =       -0.050010 Gcorr = 0.190705 a.u. Nimag =   0 Frame:     2 Step:     2 Geom:     2
C          15.96453300     18.26260200      4.98154300
H          16.65054800     17.40991100      4.87832300
H          16.53630200     19.19626600      4.89509900
H          15.55062600     18.21850600      6.02536600
C          15.42942800     18.21449400      2.59491600
H          16.09329400     17.34957000      2.43171400
H          14.63090800     18.17160700      1.83161300
H          16.01180700     19.13296600      2.41841000
C          14.09814400     16.91404000      4.18010000
H          13.56910800     16.90121800      5.16700800
H          13.28993000     16.77874800      3.43447700
H          14.76595800     16.04473400      4.14911600
C          13.96134900     19.42090200      4.17612500
H          14.57586700     20.32811700      4.00858500
H          13.65988600     19.45254400      5.26214000
C          12.70888300     19.44444900      3.28687500
H          12.61997900     18.52881500      2.66645700
H          12.76617600     20.28744500      2.57353500
C          11.44101300     19.56269800      4.13436000
H          10.53421900     19.53024900      3.51010000
H          11.40543900     20.50282900      4.70502400
N          14.84554400     18.19774900      3.97943700
C          11.41215200     18.35093100      5.10840000
O          11.24832200     17.24042900      4.60737100
O          11.65643200     18.62409900      6.30411200
O          13.99621200     18.00741200      7.25228400
H          13.86075500     17.79807300      8.16494500
H          13.05720900     18.20862500      6.91256700
          28
 G =       -0.053523 Gcorr = 0.187370 a.u. Nimag =   0 Frame:     3 Step:     3 Geom:     3
C          15.95157100     18.35108100      4.98327100
H          16.65380700     17.50950400      4.89642000
H          16.50437600     19.29335500      4.87137700
H          15.54298100     18.32270000      6.02861800
C          15.40574800     18.26099200      2.60006000
H          16.12288800     17.43669700      2.45295300
H          14.60800000     18.14703100      1.84281600
H          15.92632900     19.21072600      2.39868000
C          14.12833100     16.93406800      4.20638800
H          13.69603000     16.86983900      5.23485700
H          13.23715400     16.81588300      3.54728300
H          14.79853800     16.07947300      4.06411000
C          13.90721900     19.43471200      4.17802900
H          14.49874300     20.35993700      4.02767900
H          13.58400500     19.44892200      5.25775400
C          12.66948700     19.43070500      3.26768100
H          12.64138500     18.54057500      2.60569500
H          12.69390200     20.30625300      2.59269800
C          11.38358700     19.44471300      4.09562300
H          10.48986300     19.37790200      3.45540900
H          11.28169800     20.36178700      4.69500200
N          14.82989200     18.23895400      3.98778600
C          11.41436000     18.20184200      5.02887400
O          11.36165700     17.10095000      4.48045700
O          11.59128800     18.44565000      6.24060500
O          13.96626700     18.11259100      7.26977900
H          13.82551200     17.95261900      8.19210400
H          13.02540700     18.20056700      6.89799400
          28
 G =       -0.056389 Gcorr = 0.184195 a.u. Nimag =   0 Frame:     4 Step:     4 Geom:     4
C          15.99351900     18.26430700      4.97726500
H          16.66723900     17.40839700      4.82840200
H          16.57143800     19.19462000      4.89432500
H          15.61227700     18.20001700      6.03034500
C          15.38093900     18.30043300      2.61003200
H          16.07197500     17.46527900      2.40936200
H          14.56085200     18.23750600      1.87039600
H          15.91964600     19.24497300      2.43394000
C          14.10165500     16.94510200      4.19200900
H          13.66152800     16.86851800      5.21604400
H          13.21224300     16.87007100      3.52240000
H          14.74687100     16.07504700      4.02970400
C          13.96295000     19.44688100      4.28352700
H          14.58699600     20.35823700      4.19309400
H          13.64272900     19.39928600      5.36468100
C          12.72329300     19.54835900      3.38270800
H          12.66539700     18.71293700      2.65419900
H          12.77144800     20.47184900      2.77632400
C          11.44206900     19.53645100      4.21702600
H          10.54481400     19.59153400      3.58016300
H          11.38988000     20.38268700      4.91799900
N          14.84148600     18.23437500      4.01070000
C          11.40400600     18.19368500      4.99904000
O          11.31407600     17.16824400      4.32397800
O          11.56264000     18.28277900      6.23456600
O          13.97158000     18.18773800      7.21082800
H          13.86023700     18.11430000      8.14826300
H          13.01623500     18.18641600      6.85868100
          28
 G =       -0.056379 Gcorr = 0.184205 a.u. Nimag =   0 Frame:     5 Step:     5 Geom:     5
C          16.02521200     18.32887400      4.92089700
H          16.71390900     17.48344700      4.78096100
H          16.57980300     19.26841400      4.79430000
H          15.67232900     18.28944500      5.98503600
C          15.35205500     18.27698800      2.57045600
H          16.05611600     17.45086500      2.37790500
H          14.51503500     18.17316100      1.85478500
H          15.86500500     19.22678200      2.35113200
C          14.14379600     16.94532600      4.22659400
H          13.73153700     16.89174400      5.26366200
H          13.23960100     16.83003200      3.58303100
H          14.80387000     16.08459700      4.07469800
C          13.95191600     19.44519600      4.24398100
H          14.55305200     20.36636400      4.10903300
H          13.66026600     19.42495100      5.33406400
C          12.68785300     19.49161600      3.37298400
H          12.62991100     18.63233200      2.67277800
H          12.70027700     20.39618100      2.73706000
C          11.42884700     19.47913100      4.24049100
H          10.51469600     19.49514700      3.62583500
H          11.37596400     20.34580500      4.91597200
N          14.84994100     18.24375400      3.98610500
C          11.44002300     18.16122000      5.06452700
O          11.35615400     17.11328400      4.42413000
O          11.62718200     18.29258900      6.29230000
O          14.06177300     18.28069700      7.20744700
H          13.97593600     18.23449400      8.14929500
H          13.09796300     18.24758700      6.88054100
          28
 G =       -0.056338 Gcorr = 0.184495 a.u. Nimag =   0 Frame:     6 Step:     6 Geom:     6
C          15.94880500     18.53230900      4.99801300
H          16.68346400     17.71425800      4.97297300
H          16.46423300     19.48678200      4.83007200
H          15.53146300     18.54702400      6.04054700
C          15.43193700     18.29795600      2.61940500
H          16.20371800     17.51667700      2.52246200
H          14.65284100     18.09159900      1.86299300
H          15.89122200     19.26829300      2.37218500
C          14.20968600     16.98258600      4.27904000
H          13.81647800     16.93237100      5.32924500
H          13.30586300     16.80423100      3.65681100
H          14.91471600     16.15555600      4.14586900
C          13.85480200     19.46012900      4.12935600
H          14.39408400     20.41076000      3.94946300
H          13.51355000     19.49770400      5.20803900
C          12.63493400     19.34535000      3.20112600
H          12.67040700     18.42530500      2.58305300
H          12.62501600     20.18832900      2.48540700
C          11.32951200     19.32781400      4.00098800
H          10.46473800     19.10044200      3.35855100
H          11.12653800     20.29466300      4.48697000
N          14.84364400     18.31071800      4.00218400
C          11.46839100     18.21789300      5.07567700
O          11.40659400     17.05134000      4.69396800
O          11.75794600     18.63405400      6.22186800
O          14.02763100     17.88400100      7.20055100
H          13.87426700     17.55478100      8.07364300
H          13.09353500     18.13710400      6.86954300
          28
 G =       -0.056380 Gcorr = 0.184204 a.u. Nimag =   0 Frame:     7 Step:     7 Geom:     7
C          16.00536000     18.31286200      4.94059400
H          16.69711800     17.46760800      4.81552400
H          16.56158300     19.25248800      4.82202900
H          15.63283600     18.27572300      5.99809700
C          15.37601200     18.25469900      2.57818400
H          16.08454200     17.42896300      2.40098600
H          14.55257700     18.14787100      1.84736100
H          15.89179000     19.20456500      2.36587300
C          14.13800500     16.92634200      4.21491300
H          13.70696900     16.87490400      5.24438800
H          13.24566400     16.80908300      3.55531000
H          14.80116900     16.06563700      4.07693400
C          13.94427200     19.42609700      4.22243900
H          14.54721400     20.34737900      4.09664600
H          13.63233800     19.40824900      5.30694000
C          12.69669200     19.46956600      3.32786000
H          12.65225800     18.60852600      2.62885400
H          12.72056900     20.37247700      2.68985500
C          11.42169500     19.45860800      4.17168400
H          10.51916700     19.47198100      3.54005300
H          11.35551700     20.32726400      4.84345200
N          14.84771100     18.22463000      3.98433900
C          11.41854400     18.14319400      4.99972900
O          11.34744100     17.09326600      4.36106000
O          11.58288300     18.27847000      6.23031100
O          14.00029800     18.26903800      7.19029200
H          13.89703900     18.22542500      8.13053200
H          13.04275000     18.23511100      6.84576400
          28
 G =       -0.048891 Gcorr = 0.191825 a.u. Nimag =   0 Frame:     8 Step:     9 Geom:     9
C          15.94900800     18.48493400      5.09083100
H          16.69984800     17.68320000      5.04829300
H          16.45528000     19.45604300      5.00856900
H          15.48261500     18.43548400      6.11209300
C          15.55069200     18.34111100      2.68138600
H          16.28541600     17.52568000      2.57785100
H          14.80074400     18.21923800      1.87836600
H          16.07155900     19.29683500      2.51036100
C          14.23358900     16.98198700      4.22861200
H          13.65315800     16.95258000      5.18575300
H          13.47989600     16.76917600      3.44490600
H          14.96418200     16.16462900      4.25711100
C          13.91312700     19.47072700      4.14906400
H          14.46744900     20.41727400      3.98993100
H          13.55074800     19.50462600      5.21633000
C          12.71327700     19.37984300      3.19406500
H          12.72671800     18.44636500      2.59435700
H          12.74733500     20.20832900      2.46255200
C          11.39531300     19.42130900      3.96915100
H          10.52924200     19.30518700      3.29859900
H          11.25809300     20.36925900      4.51072400
N          14.89453300     18.31303000      4.03295200
C          11.40312200     18.23436900      4.97352600
O          11.34845700     17.10317900      4.49563300
O          11.56236000     18.55342700      6.17218700
O          13.88496100     18.13564400      7.26044300
H          13.71556400     17.93878900      8.17017100
H          12.95373600     18.25777800      6.86618700
          28
 G =       -0.053500 Gcorr = 0.187394 a.u. Nimag =   0 Frame:     9 Step:    10 Geom:    10
C          15.96993000     18.39776400      5.02696100
H          16.67150700     17.55530100      4.94318400
H          16.52616600     19.33965600      4.92997800
H          15.54715500     18.36194600      6.06643200
C          15.45616800     18.33088600      2.63585300
H          16.17610500     17.50861500      2.49105900
H          14.66880100     18.22300100      1.86695300
H          15.97842100     19.28287100      2.45006200
C          14.15678800     16.98923800      4.21195900
H          13.71078000     16.91518800      5.23387800
H          13.27450600     16.87789800      3.53984700
H          14.82851800     16.13570500      4.07041800
C          13.93703400     19.49011600      4.20475000
H          14.53086300     20.41648100      4.07123800
H          13.59937600     19.49429200      5.28012500
C          12.71157900     19.49542400      3.27789600
H          12.69225200     18.61186300      2.60689800
H          12.74522700     20.37757500      2.61193700
C          11.41469200     19.50174700      4.08859000
H          10.52962100     19.44133000      3.43583700
H          11.30485600     20.41307000      4.69536500
N          14.86170000     18.29581700      4.01545700
C          11.43267300     18.25002500      5.01025300
O          11.38690000     17.15442000      4.45077500
O          11.59361700     18.48222800      6.22650100
O          13.95457600     18.13791400      7.28410000
H          13.80131400     17.97003800      8.20311400
H          13.01888900     18.22961800      6.90058100
          28
 G =       -0.053521 Gcorr = 0.187373 a.u. Nimag =   0 Frame:    10 Step:    11 Geom:    11
C          16.00053900     18.42581900      4.93801500
H          16.71001000     17.59246300      4.83217400
H          16.53682800     19.37394900      4.79853300
H          15.63081200     18.40074200      5.99775900
C          15.36905100     18.31108900      2.57702200
H          16.09428200     17.49770100      2.41023900
H          14.54612500     18.17707100      1.85061000
H          15.86540400     19.26771200      2.34901400
C          14.16984700     16.97862900      4.23814600
H          13.77673300     16.91585600      5.28224600
H          13.25662400     16.84374800      3.61327900
H          14.84600100     16.13218100      4.07675100
C          13.91328300     19.47574300      4.20094600
H          14.48586700     20.40785200      4.02249500
H          13.62987700     19.49367500      5.29186200
C          12.64298900     19.44803900      3.33703000
H          12.60321000     18.55306600      2.68232500
H          12.63012200     20.31912100      2.65589300
C          11.38843400     19.45002800      4.21182200
H          10.47274800     19.36637000      3.60557000
H          11.29586100     20.36998900      4.80844100
N          14.84486100     18.29133900      3.98513100
C          11.47116300     18.21459200      5.15173800
O          11.41311700     17.10903700      4.61345400
O          11.68976100     18.46992300      6.35435500
O          14.10534500     18.17555400      7.29812300
H          14.00096800     18.02047700      8.22615400
H          13.15015200     18.24826400      6.96087400
          28
 G =       -0.056395 Gcorr = 0.184581 a.u. Nimag =   0 Frame:    11 Step:    12 Geom:    12
C          15.92209600     18.50395000      4.99420800
H          16.67062700     17.70309800      4.90681400
H          16.42363400     19.47807700      4.92849000
H          15.48706500     18.41168800      6.02639300
C          15.45327800     18.47240000      2.59385100
H          16.21403000     17.69038800      2.43510900
H          14.68562200     18.35638300      1.80762200
H          15.93404700     19.45333600      2.45068300
C          14.21145400     17.00937100      4.10754400
H          13.74759000     16.88625100      5.12431400
H          13.37095200     16.85483300      3.40463000
H          14.94475700     16.20411800      3.98509100
C          13.83885800     19.49006800      4.16474500
H          14.36497600     20.45583900      4.03574800
H          13.50810000     19.46125600      5.24984800
C          12.60913400     19.41453000      3.24631600
H          12.64845900     18.53496200      2.57302300
H          12.58035100     20.29893300      2.58245700
C          11.31180100     19.33507500      4.05675500
H          10.44518400     19.12474600      3.41069700
H          11.09848500     20.27488400      4.58966200
N          14.83863500     18.36209900      3.96096500
C          11.47700000     18.18210000      5.07992600
O          11.32421300     17.03256600      4.67932000
O          11.87855000     18.55173600      6.21135200
O          14.05945300     17.51834900      7.10541800
H          13.87528700     17.06926400      7.91625800
H          13.14638500     17.87972200      6.81276400
          28
 G =       -0.055754 Gcorr = 0.185260 a.u. Nimag =   0 Frame:    12 Step:    13 Geom:    13
C          15.98072000     18.46823600      4.91957800
H          16.71119800     17.65332800      4.81100600
H          16.49719900     19.43124500      4.81413900
H          15.58665000     18.40421400      5.96864000
C          15.40424500     18.40736100      2.54261400
H          16.15928700     17.62289900      2.36951900
H          14.60258100     18.26778900      1.79394500
H          15.87384500     19.38566400      2.35347700
C          14.20793400     16.99155900      4.13690200
H          13.81189900     16.88426300      5.18050100
H          13.30297000     16.85525000      3.50250300
H          14.90687100     16.16886600      3.95454300
C          13.87951700     19.47820100      4.16959400
H          14.42930900     20.43225200      4.04321400
H          13.56624700     19.44378400      5.25201000
C          12.63678700     19.44831900      3.26604400
H          12.63696900     18.56992400      2.58778700
H          12.62654400     20.33668400      2.60778700
C          11.35426200     19.40044900      4.09865600
H          10.46162500     19.30589100      3.46044400
H          11.21835500     20.30562700      4.70971100
N          14.85031100     18.32898700      3.93699300
C          11.44258100     18.15008700      5.01547400
O          11.42580000     17.05263300      4.45919000
O          11.63138400     18.38947200      6.22858600
O          14.00674200     17.80889600      7.09798600
H          13.89938700     17.45630700      7.96954600
H          13.04880100     18.00183100      6.79961600
          28
 G =       -0.055760 Gcorr = 0.185254 a.u. Nimag =   0 Frame:    13 Step:    14 Geom:    14
C          16.00678600     18.36875800      4.88155000
H          16.70218400     17.53572100      4.70290500
H          16.55348300     19.31750900      4.80232500
H          15.65251600     18.26538000      5.94160600
C          15.33472700     18.44919500      2.53037000
H          16.05454300     17.65017700      2.28776200
H          14.49967100     18.37410200      1.80945800
H          15.83017300     19.41993400      2.37046800
C          14.15231500     16.99508500      4.10046100
H          13.79404600     16.84826200      5.15282600
H          13.21876700     16.92214500      3.49781000
H          14.81348900     16.15955500      3.84883300
C          13.91522300     19.48651400      4.27028700
H          14.49354600     20.42657800      4.16894900
H          13.64401800     19.40742800      5.36173600
C          12.63743400     19.54507600      3.41857600
H          12.57921300     18.70321000      2.69783500
H          12.63301500     20.46588200      2.80640500
C          11.38797800     19.49798700      4.30009500
H          10.46795000     19.46676400      3.69538900
H          11.30907600     20.37454500      4.96082600
N          14.83402400     18.31844600      3.94089000
C          11.46730300     18.19972100      5.14862400
O          11.38879700     17.13364500      4.53918900
O          11.71247400     18.36964100      6.36337800
O          14.09806100     17.66707000      7.10448800
H          14.01273200     17.27479800      7.96135600
H          13.13647300     17.90689400      6.85560400
          28
 G =       -0.053522 Gcorr = 0.187371 a.u. Nimag =   0 Frame:    14 Step:    15 Geom:    15
C          15.97440400     18.37932600      4.92152800
H          16.71199400     17.61467200      4.63831900
H          16.47985700     19.35003000      5.01223100
H          15.59676400     18.09998800      5.94128100
C          15.36736100     18.78990700      2.58727500
H          16.11700800     18.05591000      2.24864200
H          14.55491800     18.80584900      1.83729000
H          15.83828700     19.78576800      2.59305400
C          14.19755300     17.07753700      3.88042800
H          13.79772900     16.76565700      4.87621900
H          13.29460500     17.06252100      3.22693100
H          14.90211900     16.31091100      3.54040000
C          13.86072500     19.50804500      4.41139100
H          14.40453200     20.47266100      4.45998000
H          13.56738800     19.26706100      5.47268600
C          12.59955700     19.64180500      3.54401800
H          12.59400300     18.91943600      2.70172000
H          12.56482300     20.64478900      3.07968100
C          11.33802600     19.40711200      4.37626100
H          10.43077300     19.43782500      3.75253300
H          11.21087000     20.16286200      5.16578500
N          14.83187600     18.43259400      3.94503800
C          11.45178900     17.99211500      5.00989200
O          11.43507800     17.03825900      4.23181500
O          11.65032300     17.97105500      6.24244000
O          14.06632200     17.54096200      7.13125000
H          13.95889900     17.17480500      7.99757000
H          13.11243900     17.66055500      6.80434600
          28
 G =       -0.055760 Gcorr = 0.185255 a.u. Nimag =   0 Frame:    15 Step:    16 Geom:    16
C          16.01201700     18.35493000      4.88615000
H          16.71347300     17.52064100      4.73995000
H          16.55910600     19.30348000      4.80708700
H          15.62886100     18.26756700      5.93759000
C          15.40486600     18.39646900      2.51638000
H          16.13102800     17.59410600      2.30602700
H          14.58988700     18.30985300      1.77407500
H          15.90438000     19.36488400      2.35511000
C          14.18182900     16.96541400      4.07642600
H          13.79473200     16.83482800      5.12076400
H          13.26563800     16.88086500      3.44932200
H          14.85109400     16.12722000      3.85711300
C          13.93649200     19.45877700      4.19971200
H          14.51597300     20.39813800      4.09886900
H          13.63572300     19.39677600      5.28444300
C          12.68232400     19.50107800      3.31253400
H          12.64508200     18.64744300      2.60439000
H          12.69346800     20.41179700      2.68561100
C          11.40928600     19.46598000      4.16023700
H          10.50619200     19.42360200      3.53116200
H          11.31125700     20.35287900      4.80441400
N          14.86572100     18.28733900      3.91449100
C          11.46718200     18.18166700      5.03123100
O          11.40674700     17.10577800      4.43720400
O          11.67934100     18.37150300      6.24930400
O          14.04388200     17.68390100      7.06638500
H          13.93546900     17.30470700      7.92650000
H          13.08896200     17.91840500      6.78752400
          28
 G =       -0.056379 Gcorr = 0.184205 a.u. Nimag =   0 Frame:    16 Step:    17 Geom:    17
C          16.04896800     18.27632600      4.85511800
H          16.72491500     17.43279700      4.65466500
H          16.61132000     19.21567300      4.76720000
H          15.71847100     18.18289700      5.92303500
C          15.32517000     18.35826800      2.52059300
H          16.01535400     17.53647200      2.26845200
H          14.47187500     18.30191100      1.81895300
H          15.84426100     19.31314100      2.34140600
C          14.13744000     16.95170100      4.12897700
H          13.74691000     16.84653900      5.17045500
H          13.21835000     16.88063700      3.50021300
H          14.78419000     16.09368400      3.91649400
C          13.97466900     19.44886200      4.28476200
H          14.58336300     20.36970000      4.18649600
H          13.70607100     19.37276300      5.37831100
C          12.69295700     19.55538000      3.44547000
H          12.61004000     18.73577000      2.70158000
H          12.70230900     20.49271000      2.85879600
C          11.45276900     19.50934700      4.33853900
H          10.52588200     19.56841700      3.74601500
H          11.42468900     20.33864200      5.06082300
N          14.85310000     18.25387500      3.94309700
C          11.46599000     18.14864000      5.08975300
O          11.35687100     17.13792700      4.39555500
O          11.68014700     18.21123500      6.31851700
O          14.13372300     18.12604000      7.17801000
H          14.06733200     18.03035200      8.11771900
H          13.16288600     18.12032100      6.87099800
          28
 G =       -0.056396 Gcorr = 0.184188 a.u. Nimag =   0 Frame:    17 Step:    18 Geom:    18
C          16.03974400     18.42838500      4.91026100
H          16.75496300     17.61261100      4.73248700
H          16.55904000     19.39041900      4.80475200
H          15.70673700     18.34315800      5.97812200
C          15.32857400     18.42689900      2.57046900
H          16.05749700     17.63264500      2.34000100
H          14.48348600     18.31641400      1.86534700
H          15.80443200     19.40066100      2.37376900
C          14.19648200     17.00126700      4.20202600
H          13.80387100     16.90048000      5.24320400
H          13.28628400     16.87400800      3.56931600
H          14.88385700     16.16988100      4.01241000
C          13.91722900     19.49093500      4.30299000
H          14.48329900     20.43674700      4.18835000
H          13.64512200     19.42569500      5.39635500
C          12.63759100     19.51995700      3.45431800
H          12.59798500     18.68219700      2.72729000
H          12.60714300     20.44439200      2.84820000
C          11.39490200     19.43446300      4.34099700
H          10.47029000     19.43810800      3.74201300
H          11.32345200     20.27621300      5.04569200
N          14.85233200     18.33102100      3.99218000
C          11.46642000     18.09158500      5.12040300
O          11.40785400     17.06278900      4.44703000
O          11.67063700     18.18937000      6.34859000
O          14.11885300     18.23874000      7.22500600
H          14.05045100     18.16039500      8.16613700
H          13.15148600     18.18059000      6.91228600
          28
 G =       -0.056344 Gcorr = 0.184489 a.u. Nimag =   0 Frame:    18 Step:    19 Geom:    19
C          15.98926300     18.54949700      4.98269000
H          16.72285400     17.73153700      4.93395500
H          16.50440400     19.50705200      4.83255900
H          15.57946400     18.54099200      6.02831300
C          15.45524500     18.36746300      2.60329400
H          16.22386900     17.58623900      2.48361200
H          14.67019600     18.18025400      1.84807000
H          15.91582600     19.34165200      2.37441900
C          14.24231200     17.01862900      4.24267300
H          13.85648400     16.94625600      5.29431100
H          13.33369900     16.85531000      3.62327900
H          14.94478800     16.19345600      4.08647400
C          13.89098600     19.49941100      4.14899500
H          14.43084300     20.45266200      3.98523900
H          13.55779200     19.51480800      5.23078400
C          12.66410900     19.40647000      3.22764900
H          12.69368300     18.49999900      2.58945900
H          12.65031100     20.26474800      2.53042600
C          11.36452700     19.37349100      4.03642200
H          10.49482300     19.16076200      3.39565200
H          11.16638600     20.33011000      4.54421900
N          14.87671100     18.35131900      3.99015200
C          11.50972600     18.24106200      5.08648200
O          11.44195200     17.08286600      4.68111700
O          11.80991000     18.63271000      6.23857500
O          14.08447600     17.85544400      7.18433200
H          13.93666300     17.50784700      8.05122000
H          13.14872000     18.11797800      6.86562700
          28
 G =       -0.053507 Gcorr = 0.187387 a.u. Nimag =   0 Frame:    19 Step:    20 Geom:    20
C          15.99929600     18.43268800      4.95137400
H          16.72488800     17.61427200      4.83890800
H          16.52246400     19.39304300      4.85142000
H          15.60562100     18.37156100      6.00105300
C          15.42511500     18.37288600      2.57389900
H          16.16367700     17.57280400      2.40123500
H          14.62111100     18.25079700      1.82460000
H          15.91550800     19.34110500      2.38518400
C          14.20845100     16.97759300      4.16944700
H          13.79190300     16.88044400      5.20181900
H          13.31249600     16.84599000      3.51943900
H          14.90152800     16.14613800      4.00180100
C          13.91348900     19.47062700      4.19356600
H          14.47542900     20.41572500      4.05364000
H          13.60458600     19.45450600      5.27737900
C          12.66424200     19.44719400      3.29937300
H          12.65376800     18.56972100      2.62018100
H          12.65343700     20.33613200      2.64177000
C          11.38972000     19.40640800      4.14386100
H          10.48993800     19.32535400      3.51387000
H          11.26864500     20.30811500      4.76266200
N          14.86840900     18.30670400      3.96805600
C          11.46984900     18.14702300      5.05175000
O          11.44197500     17.05596600      4.48227100
O          11.65611100     18.37235000      6.26564000
O          14.05327400     18.08980500      7.25769800
H          13.92959200     17.90791200      8.17841200
H          13.10549700     18.15716700      6.89969400
          28
 G =       -0.056371 Gcorr = 0.184213 a.u. Nimag =   0 Frame:    20 Step:    21 Geom:    21
C          16.03274400     18.41026700      4.90222500
H          16.74852100     17.58779700      4.76139800
H          16.55703000     19.36747000      4.77885000
H          15.67961900     18.35681000      5.96567700
C          15.36529700     18.34300100      2.55053800
H          16.09628800     17.54083300      2.35700100
H          14.53323800     18.21373500      1.83322800
H          15.84730600     19.30961000      2.33446900
C          14.19818500     16.96847200      4.20117600
H          13.78683100     16.89859800      5.23760400
H          13.29874300     16.82601400      3.55636200
H          14.88580700     16.12993100      4.04740900
C          13.92551500     19.46077000      4.22481600
H          14.49670900     20.40127000      4.09336400
H          13.63304200     19.42812500      5.31437200
C          12.66197700     19.46858800      3.35187200
H          12.63264400     18.60943800      2.64974800
H          12.64640100     20.37442900      2.71780600
C          11.40270900     19.41391500      4.21734700
H          10.48942700     19.40135200      3.60134200
H          11.32084700     20.27729200      4.89416100
N          14.86234000     18.28969000      3.96526300
C          11.45538300     18.09568300      5.03925200
O          11.40680300     17.04664200      4.39698600
O          11.63630700     18.23111600      6.26748900
O          14.06921500     18.29115000      7.18558000
H          13.98386200     18.23861000      8.12715500
H          13.10722900     18.22941300      6.85751100
