%nproc=24
%mem=50GB
#p M062X/6-311+G(2d,p) nosymm em=GD3 counterpoise=2

Title Card Required

0 1
P          11.49362400      8.85880000     11.38521200       1
O          10.03452900      8.80242000     11.23885600       1
O          12.10730400      7.38529500     11.30775900       1
H          13.10932300      7.45866100     11.54004600       1
O          12.25034000      9.59568800     10.19866600       1
H          11.90272500     10.60572000     10.14787300       1
O          12.07916000      9.41753800     12.74142800       1
H          11.86867100     10.46333200     12.79807300			 1
O          11.27851100     14.34907700      8.54544100       2
H          11.09607500     14.98603400      9.24911900       2
H          11.50633400     13.55171200      9.05955500       2


