%nproc=24
%mem=50GB
#p M062X/6-311+G(2d,p) nosymm em=GD3 counterpoise=2

Title Card Required

0 1
C          13.01931700      7.60092500     13.72374100      1
C          14.10783000      8.38650500     13.36933000      1
C          12.66447300      9.67732200     14.52368900      1
N          12.14307200      8.41506600     14.44362400      1
H          12.80082000      6.56953200     13.48725000      1
H          14.96735200      8.14094300     12.77740500      1
H          12.18138900     10.54253400     14.98218000      1
C          10.81339200      8.05395700     14.90176400      1
H          10.62494200      6.96806100     14.76845300      1
H          10.66748300      8.31843500     15.96041600      1
H          10.04071900      8.58224700     14.28616900      1
N          13.88039200      9.66806600     13.88493700      1
C          14.68132300     10.86053300     13.60181400      1
H          15.69195300     10.71718400     14.04942600      1
H          14.21213200     11.73968100     14.11020900      1
C          14.81110900     11.14551000     12.08782400      1
H          15.75340200     11.70800700     11.92221700      1
H          14.93716500     10.18925200     11.52931700      1
C          13.64680900     11.93679800     11.50239000      1
H          13.83133900     12.16030800     10.43619700      1
H          13.53192200     12.91509900     11.99801800      1
S          12.08515000     11.02375900     11.64179000      1
O          11.15273900     11.56471500     10.63950400      1
O          12.49308200      9.60898500     11.38143300      1
O          11.70235300     11.23361600     13.05869300      1
O           8.82682500     10.26560500      9.97190500      2
H           9.56832100     10.85272700     10.26475800      2
H           9.10944200      9.98849800      9.10308300      2     


