%chk=MImPS.chk
%mem=100000MB
%nprocshared=22
#p opt freq B3LYP/6-311G** em=GD3BJ

Title Card Required

0 1
 C                 -2.84946800    0.29997000    0.69389600
 C                 -2.11666900    1.41781500    0.48674900
 C                 -1.28969300   -0.17170800   -0.78303400
 N                 -2.32462000   -0.67749300   -0.12398400
 H                 -3.69432600    0.11639900    1.33330200
 H                 -2.19843300    2.40250100    0.91199400
 H                 -0.59022800   -0.71113700   -1.40962500
 C                 -2.61091400   -2.10389000   -0.04987100
 H                 -2.38629100   -2.55915300   -1.01092700
 H                 -1.97944600   -2.54580000    0.71998300
 H                 -3.66370600   -2.24436000    0.18265800
 N                 -1.15339100    1.10481300   -0.44849500
 C                  0.00642500    1.94980800   -0.76794300
 H                 -0.38834600    2.94057300   -0.99189200
 H                  0.46746600    1.53672800   -1.66337000
 C                  1.00414100    2.01117700    0.40306800
 H                  1.40961000    3.02509500    0.43803200
 H                  0.45561500    1.85431700    1.33419600
 C                  2.17604700    1.03489600    0.34652100
 H                  2.72482900    1.05951700    1.28707700
 H                  2.86557600    1.27312800   -0.46398900
 S                  1.71072300   -0.68798400    0.07928500
 O                  2.86850200   -1.46899800    0.44841800
 O                  0.51742000   -0.89337800    0.92108500
 O                  1.36820000   -0.73258900   -1.35762200

