          43
 Energy =    -1467.54005740 a.u.  Frame:     1 Step:     1 Geom:     1
C          10.61856300     10.20305400     10.30491800
C          10.61274500     11.54711500      9.86736000
C          11.53570500     12.43102600     10.40878000
C          12.44395600     11.97680300     11.37423200
C          12.42736300     10.64900200     11.76899700
H          11.56412600     13.47181600     10.08263300
H           9.88526600      9.47406200      9.90275700
H          13.17053700     12.66327500     11.80912000
H          13.12763100     10.25282800     12.51116100
C           9.64864700     11.94223700      8.81712600
H           9.41237900     13.01176500      8.81635900
H          10.04994200     11.69325900      7.80936900
H           8.69184600     11.38987900      8.87929500
N          11.51860500      9.78341600     11.22445600
C          11.53548500      8.35938500     11.62271800
H          11.28135600      8.28451600     12.70729700
H          10.70736700      7.82308000     11.08519500
C          12.86855700      7.65556200     11.31893200
H          13.60910100      7.85998600     12.11324500
H          12.67238100      6.55523000     11.36238300
C          13.46661700      7.99523200      9.95540200
H          14.00796900      8.95751600      9.97667900
H          14.20860800      7.23014700      9.65551200
C          12.36665600      8.05400400      8.89178200
O          11.97652900      9.19024600      8.55864200
O          11.90094300      6.97498000      8.47445100
P           9.01872900      8.37148600      6.94671400
O           8.24108300      8.64216100      8.16214300
O           8.06745700      8.40488000      5.67041900
H           8.65668000      8.19525800      4.84741800
O          10.13278000      9.44971600      6.61220000
H          10.91624000      9.35839400      7.33325400
O           9.71164800      6.94914600      6.85488100
H          10.60403400      6.96336100      7.43265600
O          10.45849600      5.55046700     10.27741400
H          11.02362400      6.02352700      9.61948400
H          10.14402700      4.78311600      9.80541200
O           8.30234400      7.30083900     10.78498100
H           8.10309600      7.63611900      9.89890200
H           8.98273400      6.62027000     10.64059700
O           9.08453000      9.43546500     12.26214100
H           8.74766000      8.64166500     11.78508900
H           8.33597700      9.76472200     12.74751400
          43
 Energy =    -1467.52388240 a.u.  Frame:     2 Step:     2 Geom:     2
C          10.65543500     10.29652500     10.14030700
C          10.70241000     11.56162200      9.50875100
C          11.66513200     12.48323200      9.93655200
C          12.54840800     12.13643800     10.96735500
C          12.48399500     10.87416700     11.55226300
H          11.73414600     13.46602800      9.46450100
H           9.87810000      9.53819500      9.83011300
H          13.29857200     12.85158400     11.31320100
H          13.16866200     10.57303200     12.35320400
C           9.75898200     11.84900900      8.40375900
H           8.83612400     11.23159300      8.46322800
H           9.44935400     12.89873000      8.35078200
H          10.20874600     11.58279400      7.42624700
N          11.54143900      9.96526600     11.12059500
C          11.49878900      8.59164000     11.70280000
H          11.16715100      8.66546400     12.77467600
H          10.66350700      8.01620500     11.19735900
C          12.81614000      7.82150400     11.57324000
H          13.53092700      8.13150700     12.36093200
H          12.58755700      6.74981700     11.78395700
C          13.49854800      7.92358900     10.20824700
H          14.07462100      8.86672600     10.11726500
H          14.24104800      7.10478700     10.09717800
C          12.51246300      7.84178500      9.05284000
O          12.34564900      8.86643800      8.35228900
O          11.88925600      6.74745100      8.87708400
P           9.27382500      8.25211500      7.20434600
O           8.68059600      8.95544500      8.37825700
O           8.21208200      8.08469200      5.97165900
H           8.55435000      7.62275900      5.15799300
O          10.52181800      9.01322100      6.50315500
H          11.43408000      9.03895600      7.06527600
O           9.79460800      6.75673400      7.49755700
H          10.86600000      6.66792900      7.86275200
O           9.61796700      5.72163600     10.00745400
H          10.57908000      5.88750600      9.93807300
H           9.31050000      5.68424600      9.07916900
O           8.70294500      8.03575200     10.84860400
H           8.24768200      8.37773400     10.04718900
H           8.81349800      7.05822300     10.69763400
O           9.19666800      9.29277900     13.17805200
H           8.73556100      8.88687800     12.40722000
H           8.59360100      9.23828900     13.90690100
          43
 Energy =    -1467.51799100 a.u.  Frame:     3 Step:     3 Geom:     3
C          10.45565900     10.32184600     10.00504900
C          10.58245600     11.59677100      9.40574500
C          11.50854900     12.49545900      9.94477000
C          12.28286300     12.11250100     11.04904300
C          12.15344800     10.83584600     11.58973100
H          11.63750100     13.48675800      9.50527500
H           9.69988400      9.57957700      9.61168100
H          13.00164700     12.81034600     11.48457700
H          12.75881200     10.50442100     12.44091800
C           9.76338000     11.90130000      8.20878500
H          10.10971000     11.28880400      7.34167400
H           8.70211800     11.63658500      8.34355000
H           9.80658100     12.95100000      7.89711500
N          11.24818700      9.94917800     11.04575600
C          11.14794200      8.55303900     11.56608100
H          10.67256600      8.58423500     12.58318100
H          10.40522400      7.97566300     10.93290000
C          12.48443100      7.80375700     11.59346900
H          13.06546200      8.07011000     12.49721600
H          12.23082600      6.71822300     11.70792300
C          13.36787300      7.98047100     10.35704700
H          13.91494400      8.94404200     10.38788100
H          14.14814500      7.19022800     10.34098800
C          12.57727900      7.90624700      9.05872600
O          12.45224400      8.99551600      8.42087300
O          12.07829100      6.81300400      8.69316100
P           9.47976900      8.01359400      7.28912700
O           8.97731500      8.18303300      8.68873400
O           8.26597500      8.04373600      6.19146200
H           8.50461300      7.74827500      5.26974100
O          10.50137200      9.15445100      6.81791600
H          11.52492500      9.12443800      7.32288700
O          10.19765900      6.59731900      6.94956300
H          11.14326800      6.44423700      7.40025700
O          10.35986600      5.83829300     10.57750600
H          11.01464100      5.95004800      9.84404500
H           9.80500400      5.10492900     10.32428000
O           8.06527900      7.46148800     10.83658900
H           7.68364600      7.78080600      9.99252500
H           8.95298500      7.10290600     10.56952100
O           8.68650500      9.45356300     12.44232300
H           8.31307800      8.75008200     11.82208200
H           8.02810100      9.58389700     13.10834300
