%nproc=24
%mem=50GB
#p M062X/6-311+G(2d,p) nosymm em=GD3 counterpoise=3

Title Card Required

0 1
O           8.47089800      6.87604600     10.71879500         1
H           9.36843500      7.19940300     10.56458800         1
H           8.02307600      6.96991300      9.87180700         1   
O          11.31548600     12.54495200     11.88876900         2
H          12.13007300     13.01232200     11.75816100         2
H          11.39505600     11.72023500     11.33771500         2
O           7.17373700      7.35374500      8.21546200         3
H           7.34131700      6.58119600      7.67652800         3
H           7.75956900      8.03484200      7.84224900         3

