%nprocshared=24
%mem=50GB
#p M052X/6-31G*

Title Card Required

0 1
 C                  1.14024100    0.71967400   -0.00021100
 C                  1.19382800   -0.67008800   -0.00012100
 C                 -0.00000800   -1.37948700    0.00009200
 C                 -1.19383600   -0.67007400    0.00020900
 C                 -1.14023200    0.71968700    0.00011700
 N                  0.00000900    1.41347000   -0.00009400
 H                 -0.00001200   -2.46280100    0.00016400
 H                  2.05531700    1.30359000   -0.00037200
 H                  2.14971600   -1.17849400   -0.00022000
 H                 -2.14973200   -1.17846600    0.00037000
 H                 -2.05530100    1.30361400    0.00019600

