%chk=BI_PA_H2O_3.chk
%nproc=16
%mem=80000MB
#p M062X/6-311+G(2d,p) nosymm em=GD3 counterpoise=5

Title Card Required

0 1
C           7.16028700     14.55047400     11.40364700      1
C           8.44720500     14.29224700     10.82075400      1
C           9.48464500     15.21873900     10.97254300      1
C           9.21766700     16.36513300     11.69909900      1
C           7.94880700     16.60892100     12.27191600      1
C           6.90316700     15.71461400     12.13259000      1
H          10.45692000     15.02909400     10.52227200      1
H          10.00169700     17.10827000     11.84083600      1
H           7.80024200     17.52903000     12.83675200      1
H           5.91889700     15.89404000     12.56049000      1
H           5.36530600     13.38772000     11.27696400      1
C           7.14161900     12.60625900     10.28689900      1
H           6.76105400     11.69208000      9.85042300      1
N           6.35709100     13.45948800     11.06458300      1
N           8.39235000     13.07095700     10.14252300      1
P           7.88286700     13.95529400      6.92708500      2
O           6.57420700     13.75779400      7.56740600      2
O           9.05851200     12.99575200      7.37338800      2
H           9.06657200     12.94609800      8.43511500      2
O           7.79691800     13.67697600      5.36223800      2
H           8.74696000     13.80669100      4.97426600      2
O           8.53048600     15.40499900      6.99093600      2
H           8.04076300     15.99978100      7.68706200      2
O           7.23293800     17.05619500      8.92688300      3
H           7.59514800     16.83343000      9.79017100      3
H           6.33434300     16.69939100      8.93168900      3
O           3.99413700     14.55966500     11.18424300      4
H           4.21083800     15.01532600     10.35368300      4
H           3.04941300     14.43676900     11.17597800      4
O           4.74795200     15.65523400      8.68669400      5
H           4.24474800     15.97607300      7.93875500      5
H           5.33625400     14.96747700      8.31212800      5

