          34
 Energy =    -1560.35515700 a.u.  Frame:     1 Step:     1 Geom:     1
C          14.76304000     11.83572100     15.95723100
H          15.16843900     10.83223600     15.78037300
H          14.82700400     12.07726300     17.03142600
H          15.44494900     12.57117000     15.45440500
C          13.42816300     12.00264300     13.91711200
H          13.84691700     11.04267100     13.55625000
H          14.19550800     12.79068000     13.63380500
C          12.72238000     13.21881200     15.98502400
H          12.85247600     14.08720500     15.27485600
H          11.64264600     13.10828100     16.13738400
H          13.19148200     13.54387700     16.92944100
C          12.56454800     10.77900400     15.88888800
H          12.51528900     10.73319000     16.99037400
H          11.53083700     10.82375000     15.50372600
H          13.01207400      9.83827300     15.52879000
C          12.08153400     12.29539100     13.24046900
H          11.40646100     12.87843700     13.90620200
H          11.54587000     11.34887900     13.03233200
C          12.27138400     13.06959400     11.94083400
H          11.30368200     13.21056300     11.42953400
H          12.90665600     12.51614700     11.22998900
N          13.35777000     11.97263700     15.43638500
S          13.02334500     14.71837600     12.20256400
O          12.53338300     15.14185000     13.55266700
O          14.47998900     14.38040800     12.30449900
O          12.60967400     15.52973400     11.07242400
P          15.53199100     15.79341000     15.31574800
O          15.32156900     14.54185600     16.05821100
O          16.24378700     15.66159400     13.91349900
H          15.59066500     15.14045500     13.23419500
O          14.23187100     16.68150100     15.12305200
H          13.52148100     16.13960000     14.54896400
O          16.50516100     16.75664000     16.13426600
H          16.61799700     17.61816900     15.57510400
          34
 Energy =    -1560.35675260 a.u.  Frame:     2 Step:     2 Geom:     2
C          14.71915000     11.82989900     16.19237900
H          15.00726200     10.77774800     16.29993300
H          14.76533300     12.32769100     17.17835700
H          15.51234100     12.33603000     15.58765800
C          13.55699200     12.10896400     14.04739500
H          14.15766100     11.24650600     13.69414700
H          14.19396000     13.02384900     13.87151600
C          12.68159200     13.20081700     16.11184000
H          13.32833200     14.10763700     15.99717100
H          11.76661500     13.46588400     15.54663900
H          12.44832900     13.08521300     17.17540100
C          12.53174700     10.77719400     15.87005500
H          12.47898400     10.60540300     16.95840600
H          11.49768100     10.90161200     15.50210200
H          12.94701600      9.87126300     15.39904300
C          12.24040400     12.20684100     13.26252700
H          11.43821700     12.67641800     13.87535800
H          11.87069200     11.19376700     13.01057500
C          12.42020300     13.01598500     11.98504900
H          11.50240500     12.97938700     11.37256400
H          13.21750900     12.59607100     11.34942200
N          13.36337300     11.98765900     15.55264800
S          12.81751500     14.78098600     12.29847500
O          12.51178100     14.96906500     13.75584100
O          14.29357400     14.81844200     12.08895900
O          11.99738300     15.53987700     11.36959500
P          15.62361500     15.74681000     15.15819100
O          15.56553700     14.39391300     15.73544700
O          16.18858200     15.87590000     13.69422000
H          15.46627100     15.45540000     13.00577800
O          14.24056600     16.52218100     15.22626000
H          13.50930200     15.96882300     14.67995000
O          16.60368900     16.66252200     16.02171500
H          16.61640600     17.59426400     15.57541400
          34
 Energy =    -1560.35716040 a.u.  Frame:     3 Step:     3 Geom:     3
C          14.92412800     11.73218700     15.81444600
H          15.33630400     10.77923400     15.45999500
H          15.05768300     11.81090800     16.90507800
H          15.55515200     12.55386100     15.38093300
C          13.44309000     12.11634400     13.90846800
H          13.85022100     11.21860500     13.40271000
H          14.17596200     12.95195900     13.66901700
C          12.87477500     13.05953300     16.15382500
H          12.94326000     14.00436300     15.55245700
H          11.81233400     12.90161600     16.37514400
H          13.41294800     13.27977500     17.09282700
C          12.74023700     10.64578100     15.77383700
H          12.77627200     10.46304200     16.86136600
H          11.67965100     10.71558600     15.47485000
H          13.16935200      9.76575500     15.26678500
C          12.04813600     12.45682800     13.36881100
H          11.46619400     13.06748000     14.09583400
H          11.45879900     11.53276700     13.21434800
C          12.14573700     13.22512700     12.05531500
H          11.14278700     13.38179600     11.62307300
H          12.71423400     12.66276400     11.29740000
N          13.48366700     11.90103600     15.41321800
S          12.93980200     14.86377500     12.25590600
O          12.49470000     15.33013000     13.60346800
O          14.39269000     14.49349000     12.32307400
O          12.51500100     15.65207700     11.11320400
P          15.54029500     15.77501100     15.34189800
O          15.34346700     14.48464700     16.02164200
O          16.20541800     15.70992000     13.91270600
H          15.52928100     15.21516600     13.23264300
O          14.24567900     16.68244900     15.24541900
H          13.51898700     16.19648500     14.63371200
O          16.55255800     16.67802000     16.18209700
H          16.65122100     17.57250400     15.67452500
          34
 Energy =    -1560.36216120 a.u.  Frame:     4 Step:     4 Geom:     4
C          14.55891300     11.57695700     16.27905100
H          14.83168800     10.54311700     16.02266200
H          14.47436300     11.66443400     17.37454900
H          15.40888100     12.23052800     15.97518000
C          13.57064800     12.16387800     14.10683700
H          14.18002900     11.30653400     13.75666400
H          14.22286800     13.07910700     13.99014600
C          12.81068600     13.29337300     16.18936800
H          13.66496600     14.00137600     16.34634800
H          12.13380800     13.84309800     15.49718700
H          12.31367300     13.14936600     17.15357300
C          12.25201700     10.93735500     15.82607100
H          12.16117000     10.69339400     16.89790000
H          11.25718800     11.27126800     15.47795700
H          12.50388500     10.01063700     15.28451200
C          12.29403900     12.29358000     13.26375400
H          11.51612100     12.88142500     13.80285200
H          11.84995500     11.29504600     13.08396900
C          12.58731500     12.96175800     11.92760400
H          11.70829700     12.89739900     11.26275100
H          13.40452800     12.45447800     11.38931200
N          13.28730200     12.00114700     15.59505700
S          13.03252500     14.73463900     12.09804800
O          12.59309800     15.07644000     13.49037000
O          14.52155300     14.69964600     12.03108400
O          12.33852600     15.41885400     11.02004300
P          15.59206800     15.93201200     15.08496600
O          15.59742900     14.60095900     15.71128300
O          16.21187300     16.04687300     13.64177300
H          15.58930000     15.49032200     12.95356300
O          14.17176800     16.63602600     15.07796800
H          13.50172100     16.06318200     14.47359000
O          16.48438300     16.93377800     15.95146500
H          16.46343800     17.84804200     15.47257000
