          32
 G =       -0.346316 Gcorr = 0.184804 a.u. Nimag =   0 Frame:     1 Step:     1 Geom:     1
C           5.46738300      9.41410100     10.17064700
C           4.71531600      9.64333000      9.02393800
C           6.75289100     10.55319800      8.71061200
N           6.72515700      9.98013800      9.95401800
H           5.18937200      8.93832000     11.09904400
H           3.68809600      9.40800900      8.82118900
H           7.58255600     11.12085000      8.28396900
C           7.78535300     10.11673800     10.93699000
H           8.53856600      9.32023500     10.82150700
H           8.27905200     11.11290200     10.84040000
H           7.37415200     10.08798600     11.96999900
N           5.53302600     10.33874100      8.12715500
C           5.12699100     10.85236800      6.82019700
H           4.26966200     10.24227700      6.44890600
H           5.96266500     10.70851400      6.09561300
C           4.72552500     12.33711300      6.88412300
H           4.17362000     12.59464500      5.95842100
H           3.99635300     12.50465800      7.71308300
C           5.91664300     13.27907100      7.05795300
H           5.73251000     14.24113400      6.54154700
H           6.84750300     12.87572500      6.63724000
C           6.07709900     13.56846400      8.56009900
O           6.95311300     12.90226500      9.16881900
O           5.30378700     14.38899600      9.06207300
P           4.80432900     12.41768000     11.87708500
O           4.20195400     11.23707900     11.24967500
O           4.23042600     13.83854400     11.49105100
H           4.64788200     14.12132000     10.54381000
O           4.59721800     12.34950400     13.46089800
H           4.99074700     13.21511300     13.86009400
O           6.38731800     12.49868700     11.73924900
H           6.64374200     12.77230700     10.73060200
          32
 G =       -0.341054 Gcorr = 0.185345 a.u. Nimag =   0 Frame:     2 Step:     2 Geom:     2
C           5.43916200      8.44309900      8.92675100
C           5.49341500      9.07307800      7.68979000
C           6.31171400     10.49690500      9.23421900
N           5.95610200      9.33650000      9.86469000
H           5.07952800      7.46455200      9.18605700
H           5.18882000      8.72003700      6.72219800
H           6.70448200     11.42555800      9.71174200
C           6.06152400      9.06703700     11.28697500
H           5.17363800      9.48060900     11.83123000
H           6.12932700      7.98745000     11.49002200
H           6.95634700      9.56620500     11.72789600
N           6.04605200     10.33714900      7.89747700
C           6.23375600     11.33917100      6.84493900
H           6.60755600     10.82747400      5.93025400
H           7.03536300     12.05994600      7.16332900
C           4.92154000     12.09544200      6.55561000
H           4.77700100     12.17854700      5.46104200
H           4.04616400     11.52318900      6.92874100
C           4.91296700     13.48758400      7.18222900
H           3.96223200     14.00939500      6.96507400
H           5.72255300     14.12257000      6.78316200
C           5.07687800     13.35391900      8.70311700
O           6.25615800     13.21731200      9.11376500
O           4.05570600     13.32988000      9.39733900
P           5.70633300     12.84701100     12.46923200
O           6.02248200     11.42228100     12.30176500
O           4.22486900     13.26999000     12.10889000
H           4.13267800     13.29193300     11.03938900
O           5.85402300     13.26313300     14.00356800
H           5.59893800     14.26110700     14.07223400
O           6.67540700     13.84512300     11.70911100
H           6.55729100     13.66683100     10.65816900
          32
 G =       -0.358144 Gcorr = 0.173944 a.u. Nimag =   0 Frame:     3 Step:     3 Geom:     3
C           5.63886300      8.32533200      8.79561400
C           5.67646100      9.02502400      7.59344200
C           6.14809800     10.47881700      9.26328900
N           5.93272100      9.23891000      9.82059000
H           5.42864200      7.28246100      8.97054100
H           5.50106500      8.66929100      6.59140500
H           6.38193600     11.42193100      9.83572700
C           5.97612100      8.95426200     11.25868300
H           5.12174000      9.45171800     11.77709400
H           5.97592300      7.87759200     11.46910400
H           6.87064600      9.43670000     11.72671400
N           6.00082000     10.35874100      7.89431800
C           6.09772700     11.47714000      6.92679900
H           6.52594100     11.09799100      5.97546700
H           6.82629000     12.23396900      7.34624500
C           4.72882900     12.14505700      6.70212500
H           4.50593900     12.17268100      5.61661600
H           3.91242900     11.54268100      7.15421200
C           4.67103400     13.56618500      7.26372900
H           3.65752300     13.99418900      7.11474300
H           5.36863800     14.23901000      6.72817100
C           5.00684400     13.59891800      8.75356300
O           6.19162300     13.32722200      9.09894100
O           4.07562800     13.86819600      9.55137200
P           6.07614400     12.93230200     12.19587800
O           6.20061900     11.50822600     11.76984600
O           4.63628600     13.62264500     12.06843200
H           4.27413200     13.82038500     11.03172500
O           6.44380700     13.14798700     13.78016000
H           6.26706600     14.05976500     14.14077400
O           7.11265200     13.94993600     11.45341800
H           7.01782000     13.99474800     10.41127900
          32
 G =       -0.343568 Gcorr = 0.183435 a.u. Nimag =   0 Frame:     4 Step:     4 Geom:     4
C           4.95526500      8.69120400      8.90918100
C           5.22317900      9.26536400      7.67407800
C           6.15545100     10.56355500      9.26602000
N           5.54387600      9.50541000      9.87864400
H           4.40533300      7.80087300      9.15015700
H           4.94024700      8.94734200      6.68836100
H           6.70811100     11.37892900      9.75965800
C           5.44743200      9.28946900     11.31078300
H           4.70732200      9.99804600     11.76045200
H           5.13265400      8.26061700     11.54356400
H           6.42010100      9.48603600     11.81607400
N           5.98064900     10.41444200      7.91067300
C           6.31138000     11.41483200      6.89227100
H           6.76683500     10.89863800      6.01833000
H           7.08569000     12.11690700      7.30288400
C           5.05012200     12.20297900      6.47567100
H           5.06477000     12.37685200      5.38344600
H           4.13799100     11.60273800      6.67879000
C           4.94013200     13.53473000      7.21521300
H           3.92014400     13.95148300      7.13430100
H           5.62502000     14.29274100      6.79321100
C           5.26014000     13.31907400      8.69889700
O           6.26539500     13.89416900      9.14686700
O           4.55735100     12.49440400      9.32237100
P           6.19823100     12.86577000     12.44974400
O           7.13910000     11.76420500     12.22004400
O           4.70194700     12.51219000     12.03163400
H           4.60561600     12.56731600     10.97440800
O           6.06955200     13.18101200     14.00785400
H           5.39257700     13.95462800     14.10566500
O           6.54123300     14.26570100     11.80518800
H           6.47715900     14.15836000     10.73558000
          32
 G =       -0.340225 Gcorr = 0.186201 a.u. Nimag =   0 Frame:     5 Step:     5 Geom:     5
C           5.15458400      8.53421800      8.89261500
C           5.22861900      9.16533400      7.65756700
C           6.22499300     10.49548000      9.18109800
N           5.78069100      9.36944900      9.81779600
H           4.71409300      7.59113400      9.15881000
H           4.86201900      8.84969800      6.69854400
H           6.72231900     11.37753800      9.65055200
C           5.89595700      9.08514300     11.23679200
H           5.83374900      8.00414300     11.43767400
H           6.86162300      9.46209700     11.64707000
H           5.08557400      9.60261900     11.80704700
N           5.90302000     10.37124700      7.85291000
C           6.12462400     11.36965400      6.80310000
H           6.43735400     10.84412300      5.87349700
H           6.97864800     12.03639700      7.10222700
C           4.85287200     12.20801500      6.56112800
H           4.71227700     12.35760500      5.47306000
H           3.95071000     11.66077300      6.90655900
C           4.91465600     13.56331600      7.26194000
H           3.96546300     14.11563500      7.13352000
H           5.71414700     14.20197500      6.84734100
C           5.16856900     13.34089300      8.75900900
O           6.37269100     13.22434800      9.09577500
O           4.19254300     13.21634400      9.50664200
P           6.09442200     12.86788300     12.48389300
O           6.50975300     11.46943100     12.32340100
O           4.56016100     13.15382300     12.20955900
H           4.39997200     13.18378000     11.15294900
O           6.29173500     13.32993000     13.99898100
H           5.95880200     14.30506900     14.06394500
O           6.92370800     13.93070400     11.65130600
H           6.76965800     13.71221700     10.61370200
          32
 G =       -0.341052 Gcorr = 0.185347 a.u. Nimag =   0 Frame:     6 Step:     6 Geom:     6
C           5.23972900      8.46727800      8.86137000
C           5.29685400      9.12984700      7.64168700
C           6.26389600     10.44542100      9.19613500
N           5.84894200      9.29345600      9.80551200
H           4.82133800      7.50830700      9.10525600
H           4.93616000      8.82878100      6.67582400
H           6.73630500     11.32965100      9.68568600
C           5.98232700      8.97361700     11.21495200
H           5.14404200      9.43038200     11.80168100
H           5.98114200      7.88616200     11.38468800
H           6.92395900      9.39611000     11.63814900
N           5.94326300     10.34573800      7.86562700
C           6.16633900     11.36419600      6.83600400
H           6.47315800     10.85623000      5.89472400
H           7.02650800     12.01768100      7.14664500
C           4.90163500     12.21797500      6.61408800
H           4.72771800     12.34460700      5.52800600
H           4.00093600     11.69633300      7.00083200
C           5.01110600     13.58728500      7.28020000
H           4.09261500     14.17992600      7.11143800
H           5.84959500     14.17699800      6.87138200
C           5.21515400     13.39569100      8.78998800
O           6.39484500     13.16561500      9.15522200
O           4.21818000     13.42074800      9.51850600
P           5.93041600     12.73086200     12.51589100
O           6.14111000     11.29366300     12.29680800
O           4.47081700     13.26500400     12.21964900
H           4.34552700     13.32700600     11.15508400
O           6.15697500     13.08833700     14.05540700
H           5.97157400     14.09831100     14.16185600
O           6.94102800     13.68327500     11.75129100
H           6.77681300     13.54552400     10.70041800
          32
 G =       -0.340442 Gcorr = 0.185245 a.u. Nimag =   0 Frame:     7 Step:     7 Geom:     7
C           4.78740700      8.88272300      8.69110900
C           5.30344900      9.45764600      7.53486800
C           6.16405400     10.54757400      9.30936700
N           5.33585800      9.56948100      9.77563000
H           4.09181000      8.07274800      8.80519900
H           5.12141200      9.22021700      6.50384800
H           6.74620600     11.26137700      9.90894900
C           4.95380300      9.41184600     11.16716300
H           4.25326300     10.23693300     11.46014900
H           4.46102600      8.44494800     11.34678700
H           5.83759600      9.49957800     11.83959700
N           6.16684100     10.47766200      7.93452400
C           6.75501900     11.50940200      7.07998300
H           7.37866300     11.02256200      6.29739600
H           7.43866000     12.14572400      7.70880600
C           5.69229800     12.42279300      6.43145100
H           6.21523000     13.34892600      6.10037100
H           5.28865600     11.94875600      5.51810000
C           4.53724000     12.81831800      7.35224400
H           3.71794300     12.07824800      7.30706300
H           4.09640700     13.78119700      7.03216200
C           4.99796900     12.97630300      8.80666300
O           5.99348400     13.67793500      9.03421700
O           4.38255600     12.28707600      9.65286900
P           6.32953400     12.86152600     12.47149200
O           7.10412300     11.63431900     12.25567300
O           4.76356600     12.69224300     12.26888300
H           4.56121200     12.59894700     11.22060600
O           6.46135900     13.35025300     13.98321500
H           5.90512500     14.21653800     14.07041100
O           6.76535700     14.13394600     11.63288400
H           6.47287700     13.99227700     10.61833200
          32
 G =       -0.343236 Gcorr = 0.183472 a.u. Nimag =   0 Frame:     8 Step:     8 Geom:     8
C           4.73477000      8.74044400      8.83377800
C           5.05363800      9.31386900      7.61034200
C           6.08499400     10.49902000      9.22891400
N           5.38586100      9.48394000      9.81977600
H           4.11179900      7.89459000      9.05672900
H           4.74850000      9.03941500      6.61822000
H           6.70063900     11.25709600      9.73952300
C           5.26594300      9.25069300     11.24725100
H           4.54115900      9.97372000     11.69774800
H           4.92422000      8.22695400     11.46227500
H           6.23804200      9.41837800     11.76827000
N           5.90294300     10.39123500      7.87057000
C           6.32295000     11.37821300      6.87219200
H           6.73129000     10.84112000      5.98767400
H           7.15657900     11.99972000      7.29648800
C           5.13820900     12.28475400      6.47236600
H           5.17453300     12.48517100      5.38522600
H           4.17566900     11.76196200      6.65611600
C           5.14158200     13.60137700      7.24674100
H           4.16423700     14.11063300      7.16948300
H           5.89663300     14.30488100      6.85108500
C           5.42646700     13.31556300      8.72556800
O           6.49075000     13.75880100      9.18923800
O           4.63160300     12.56273000      9.32746400
P           6.25433100     12.69854100     12.47554500
O           7.05598100     11.49341400     12.23197200
O           4.73042500     12.53568800     12.04194000
H           4.65643000     12.60349100     10.98324300
O           6.15510600     13.00105100     14.03813600
H           5.57303700     13.84741600     14.14611100
O           6.77302200     14.05481400     11.85616200
H           6.70866000     13.97132100     10.78385900
          32
 G =       -0.340065 Gcorr = 0.186361 a.u. Nimag =   0 Frame:     9 Step:     9 Geom:     9
C           4.78930200      8.65036600      8.78841100
C           5.05335200      9.28404900      7.58099300
C           6.06219900     10.45840200      9.22001400
N           5.42610900      9.38814700      9.78628300
H           4.21339600      7.76621900      8.99069400
H           4.74014100      9.02972800      6.58551700
H           6.61922800     11.26498900      9.75375800
C           5.37505600      9.07213600     11.20232700
H           5.16279800      8.00454900     11.36966100
H           6.33793300      9.32039800     11.70653100
H           4.58532800      9.67836800     11.71070300
N           5.85044600     10.39345000      7.86569400
C           6.28865700     11.37048600      6.86500700
H           6.61776700     10.82269900      5.95410500
H           7.18753000     11.92089600      7.25540600
C           5.15755800     12.36466500      6.53181900
H           5.13652100     12.54546400      5.43961800
H           4.16700300     11.92995900      6.78189100
C           5.32177400     13.69189900      7.26887700
H           4.46348300     14.36015900      7.07061400
H           6.22820400     14.23135000      6.94277900
C           5.40899900     13.41908500      8.77655800
O           6.55385000     13.14868500      9.21589100
O           4.36097000     13.40700200      9.43128800
P           5.92425400     12.78339600     12.55598100
O           6.17461200     11.34595100     12.39747000
O           4.46953300     13.26562400     12.15349100
H           4.41105900     13.32790900     11.08765900
O           6.03840100     13.19527200     14.09389300
H           5.82429700     14.20346200     14.15408400
O           6.95280900     13.74373700     11.82770800
H           6.86743400     13.56151600     10.77529100
          32
 G =       -0.340248 Gcorr = 0.186179 a.u. Nimag =   0 Frame:    10 Step:    10 Geom:    10
C           4.86662900      8.63695200      8.73789700
C           5.06397200      9.29435000      7.53043300
C           6.10494400     10.47445800      9.14500900
N           5.52241800      9.37883200      9.72033600
H           4.32399100      7.73424900      8.94998800
H           4.71838000      9.04468900      6.54456100
H           6.66032900     11.28924200      9.66804300
C           5.53693500      9.04252300     11.13252400
H           5.36088800      7.96729100     11.29267800
H           6.51200300      9.31102400     11.60157200
H           4.75179500      9.61942900     11.68071100
N           5.84054200     10.42206500      7.79945800
C           6.21037300     11.42485900      6.79656500
H           6.51781700     10.89915700      5.86537600
H           7.10838900     11.99550600      7.15895600
C           5.03928800     12.39070300      6.52338900
H           4.96967300     12.58615900      5.43576500
H           4.07214000     11.92423900      6.80568400
C           5.19537600     13.71158300      7.27359800
H           4.31174900     14.35802500      7.11925000
H           6.07290900     14.28100800      6.92050000
C           5.34966500     13.41992000      8.77226300
O           6.51806400     13.17511800      9.16203600
O           4.32935200     13.36899400      9.46759100
P           6.03454500     12.74875500     12.51928300
O           6.32006700     11.32151700     12.33142000
O           4.55134800     13.19280800     12.18185900
H           4.44859600     13.26856400     11.12059900
O           6.19821400     13.14484300     14.05687700
H           5.96271900     14.14678500     14.13815100
O           7.00471400     13.74838100     11.76398500
H           6.88217800     13.57799200     10.71365500
          32
 G =       -0.341363 Gcorr = 0.189015 a.u. Nimag =   0 Frame:    11 Step:    11 Geom:    11
C           4.83512700      9.71905300      9.84141000
C           4.30697800     10.13433500      8.62407900
C           6.54581700     10.36139700      8.52593200
N           6.21846200      9.86023900      9.75736000
H           4.32900200      9.36805900     10.73127800
H           3.28372400     10.20417400      8.30632500
H           7.54523600     10.60713300      8.17944800
C           7.17608400      9.61663500     10.82059600
H           6.65730000      9.44910400     11.79234000
H           7.81045700      8.74476800     10.59502200
H           7.82238600     10.51526400     10.97595800
N           5.38239000     10.50875400      7.81449900
C           5.27737400     11.10120700      6.48232500
H           4.49417700     10.55098800      5.90864500
H           6.23988700     10.95558300      5.93805500
C           4.93002100     12.60020800      6.54940900
H           4.67785100     12.95083000      5.52886000
H           4.00928800     12.76112000      7.15628200
C           6.06198500     13.44532600      7.12682700
H           5.94689300     14.50632200      6.83105600
H           7.05270300     13.12809100      6.76884800
C           5.99507500     13.37282400      8.66118600
O           6.85161000     12.64833300      9.22427400
O           5.07678500     13.98592000      9.21520100
P           5.31934400     12.45471500     12.42535800
O           4.78900400     11.09082400     12.33669100
O           4.44046200     13.61364900     11.80924800
H           4.70415500     13.75742000     10.78006200
O           5.44964800     12.86714700     13.96397900
H           5.80279800     13.83512900     13.99431600
O           6.80704400     12.61823600     11.89151700
H           6.81093500     12.69722500     10.82362900
          32
 G =       -0.343796 Gcorr = 0.183206 a.u. Nimag =   0 Frame:    12 Step:    12 Geom:    12
C           4.50534900      8.79905900      8.72619200
C           4.88895500      9.38736200      7.52891200
C           5.94936200     10.45973300      9.20652800
N           5.17528700      9.47232300      9.74954400
H           3.82705800      7.98672600      8.90839200
H           4.59273400      9.16142300      6.52193100
H           6.59758100     11.16238600      9.75422600
C           5.00703800      9.20318800     11.16601000
H           4.54955400      8.21678600     11.33779000
H           5.98147100      9.24070600     11.70363300
H           4.35607300      9.98368700     11.63395000
N           5.79542000     10.40256000      7.84169800
C           6.29551200     11.39270900      6.88421800
H           6.69912500     10.85882300      5.99556400
H           7.14894100     11.95580200      7.34827300
C           5.17248300     12.37291200      6.47967400
H           5.24264800     12.59236000      5.39795100
H           4.17830400     11.90223400      6.63393500
C           5.23398100     13.67126400      7.28157500
H           4.28846600     14.23647500      7.19642600
H           6.03462600     14.33915800      6.91478400
C           5.47161000     13.34398400      8.76033500
O           6.52728800     13.75810100      9.26579300
O           4.64427600     12.59188200      9.31989500
P           6.21176700     12.58040300     12.50412500
O           7.00151400     11.37315000     12.23873000
O           4.69580200     12.45731400     12.02905700
H           4.64363200     12.57594000     10.97378700
O           6.07585100     12.83022600     14.07348600
H           5.50707500     13.68321200     14.19648000
O           6.76181500     13.95108200     11.94639100
H           6.71940600     13.90704300     10.87072600
          32
 G =       -0.341048 Gcorr = 0.185350 a.u. Nimag =   0 Frame:    13 Step:    13 Geom:    13
C           4.61793000      8.68534800      8.77108800
C           4.83449800      9.34596700      7.56835100
C           5.99457400     10.42216500      9.17403500
N           5.34924000      9.36135500      9.74745100
H           4.01624500      7.82104500      8.98347700
H           4.44878100      9.13739000      6.58786800
H           6.61505800     11.18964500      9.69430400
C           5.38030800      8.99691700     11.15203300
H           4.62977000      9.59614100     11.72925100
H           5.16562400      7.92720700     11.29703400
H           6.37372500      9.22249100     11.60643900
N           5.69680200     10.40989800      7.83457500
C           6.13956800     11.38415500      6.83358300
H           6.36854500     10.84310600      5.88861200
H           7.10052200     11.85399100      7.17886300
C           5.06917800     12.46950300      6.60133600
H           4.95274800     12.64650700      5.51459200
H           4.07471600     12.12453900      6.95484600
C           5.42162400     13.78001600      7.30064600
H           4.63924000     14.54155800      7.12374900
H           6.36877200     14.20408600      6.92513400
C           5.54354500     13.52606300      8.81008100
O           6.64647100     13.06630600      9.19760100
O           4.55046500     13.73019400      9.51538900
P           6.01624000     12.67005800     12.53560000
O           5.95287300     11.22327500     12.28920300
O           4.69516200     13.48049900     12.21732600
H           4.61324500     13.58411700     11.15162200
O           6.26501900     12.95003200     14.08769400
H           6.27529500     13.97478900     14.21233600
O           7.21160100     13.42323600     11.81658000
H           7.05261700     13.33841800     10.75931400
          32
 G =       -0.342955 Gcorr = 0.184605 a.u. Nimag =   0 Frame:    14 Step:    14 Geom:    14
C           4.31908700      8.93712000      9.01488600
C           4.65426700      9.44231200      7.76584800
C           6.00308700     10.40710000      9.29364500
N           5.17013900      9.53885500      9.94405400
H           3.56260900      8.22746400      9.29166100
H           4.23120400      9.23568400      6.80111200
H           6.77570300     11.03496100      9.75619200
C           5.11885400      9.31879800     11.37782000
H           4.41360500     10.04332200     11.85500800
H           4.79304700      8.29442100     11.61557600
H           6.11245300      9.49444400     11.85081900
N           5.71164700     10.33454300      7.95306600
C           6.25004400     11.22110900      6.91884200
H           6.52207400     10.60433300      6.03248100
H           7.19188200     11.68991600      7.29779300
C           5.23170900     12.31532800      6.53357700
H           5.20230700     12.42439200      5.43341900
H           4.20680400     12.01142300      6.84064200
C           5.56043200     13.65414100      7.18391700
H           4.81243100     14.42155200      6.90485000
H           6.53412700     14.05036400      6.84280900
C           5.56640200     13.56342200      8.71472800
O           6.17019300     14.45248700      9.32576800
O           4.98216100     12.57840200      9.22925500
P           6.39353400     12.75509100     12.38843500
O           7.32540000     11.67073900     12.05648400
O           4.90629700     12.47775000     11.89188100
H           4.86779700     12.59263200     10.82559600
O           6.22905800     12.86545900     13.97308200
H           5.59489900     13.65733100     14.15911700
O           6.77166300     14.22150000     11.94741800
H           6.53508500     14.33362200     10.90023200
          32
 G =       -0.356846 Gcorr = 0.174807 a.u. Nimag =   0 Frame:    15 Step:    15 Geom:    15
C           4.92548200      9.56266800      9.94633600
C           4.38175400      9.92750700      8.71819400
C           6.59867600     10.37815900      8.65914400
N           6.30077100      9.82475300      9.88762700
H           4.42815700      9.21357800     10.85471100
H           3.35478300      9.88905700      8.39226700
H           7.56263500     10.79334500      8.36133200
C           7.26848000      9.61713000     10.96966700
H           7.81309500     10.57061500     11.19763800
H           6.73867700      9.35421100     11.91453100
H           7.99217200      8.82707500     10.72031500
N           5.42983400     10.41752600      7.92059400
C           5.29747200     10.97860200      6.55697900
H           4.57504700     10.34859800      5.98567700
H           6.28016800     10.89624500      6.03517600
C           4.82380100     12.44059300      6.57549500
H           4.56317900     12.73734000      5.53845700
H           3.87889100     12.53890400      7.15948200
C           5.86074200     13.40860400      7.14176800
H           5.62351700     14.44694500      6.82830900
H           6.87803400     13.20225000      6.76274200
C           5.85366300     13.36019000      8.66909700
O           6.88133100     12.86849300      9.22681000
O           4.82758200     13.75158900      9.26521000
P           5.39963000     12.23790500     12.37100900
O           4.87393600     10.86630700     12.17202500
O           4.56250500     13.51352400     11.85188300
H           4.57790400     13.72937300     10.79212300
O           5.58573200     12.61370400     13.96010900
H           5.72410500     13.57793400     14.16000700
O           6.89170700     12.42656200     11.75442500
H           6.96654300     12.83072800     10.74087200
          32
 G =       -0.340253 Gcorr = 0.186173 a.u. Nimag =   0 Frame:    16 Step:    16 Geom:    16
C           4.95822800      8.60519100      8.86166500
C           5.10592300      9.23482800      7.63249200
C           6.18888800     10.46509800      9.18066300
N           5.63916400      9.37789300      9.80233300
H           4.43402300      7.70203200      9.11424600
H           4.72883100      8.95755200      6.66572000
H           6.75294900     11.29826500      9.66401500
C           5.70706300      9.07634600     11.22084500
H           6.69492900      9.36650100     11.64854500
H           4.93512200      9.65808900     11.78233500
H           5.54924100      8.00348900     11.41287200
N           5.87853700     10.37692400      7.84683500
C           6.20147000     11.35879300      6.80774200
H           6.48103400     10.81387100      5.87875900
H           7.10572000     11.94679100      7.12394400
C           5.01110000     12.30617100      6.55408700
H           4.89950200     12.47351400      5.46525000
H           4.05988100     11.83787300      6.88347300
C           5.18086100     13.64698600      7.26485700
H           4.28570700     14.28108600      7.12651300
H           6.03933600     14.21535400      6.86622700
C           5.39175700     13.39468200      8.76385200
O           6.57597900     13.17132400      9.11715900
O           4.39750000     13.35144400      9.49631100
P           6.21559400     12.82070400     12.49836000
O           6.50706800     11.39183300     12.33292800
O           4.71686400     13.24391600     12.20505100
H           4.57492300     13.29275200     11.14683500
O           6.43102800     13.25358400     14.01958800
H           6.18428200     14.25376000     14.08763300
O           7.14789700     13.81057700     11.68521000
H           6.98960000     13.61279600     10.64366900
          32
 G =       -0.341575 Gcorr = 0.184975 a.u. Nimag =   0 Frame:    17 Step:    17 Geom:    17
C           4.90831700      8.61999200      8.65768900
C           5.19705000      9.32210300      7.49420900
C           6.10007000     10.44483300      9.22734600
N           5.47957200      9.32739100      9.71548900
H           4.35702700      7.70799600      8.79265700
H           4.93337500      9.10718200      6.47542100
H           6.61319800     11.23674700      9.81855100
C           5.37917000      8.94620300     11.11284900
H           5.21323200      7.86315800     11.22384500
H           6.30476100      9.21687500     11.67302800
H           4.53848700      9.49125900     11.60768100
N           5.94172600     10.44219800      7.86487400
C           6.38170400     11.49017500      6.93988400
H           6.84207100     11.01092600      6.04914800
H           7.18419600     12.10558400      7.44296600
C           5.20301500     12.40009000      6.53846500
H           5.23991900     12.59240400      5.44864300
H           4.23439800     11.89010200      6.71778900
C           5.21992700     13.72809000      7.29362500
H           4.30310300     14.30998300      7.08564200
H           6.07343900     14.35833300      6.98708600
C           5.32141300     13.46007900      8.80160600
O           6.45823700     13.11441000      9.21292100
O           4.29692300     13.54356300      9.48526200
P           5.84199900     12.67720900     12.54951700
O           6.02220500     11.23702200     12.32812000
O           4.41068900     13.25034800     12.19075600
H           4.34822400     13.37042900     11.12754300
O           6.00472200     13.01823900     14.10010900
H           5.84056100     14.03217000     14.20569200
O           6.91015300     13.60904300     11.83913800
H           6.79711800     13.47587800     10.78245900
          32
 G =       -0.341380 Gcorr = 0.188999 a.u. Nimag =   0 Frame:    18 Step:    18 Geom:    18
C           5.09590400      9.57620600      9.82866800
C           4.54293500      9.93577400      8.60459600
C           6.73248600     10.46279900      8.56179200
N           6.44909400      9.90322300      9.77884000
H           4.62260600      9.14614000     10.70174000
H           3.52660800      9.87280700      8.26400100
H           7.69694900     10.84578800      8.24180400
C           7.40764200      9.77398600     10.86111600
H           7.92304900     10.74905600     11.04324800
H           6.89539300      9.52266300     11.81813800
H           8.15879000      8.99940500     10.63931700
N           5.57534600     10.46373900      7.82521200
C           5.42052900     11.05758400      6.49855400
H           4.73038400     10.41683700      5.89991300
H           6.40532000     11.05016200      5.97511200
C           4.87464200     12.49566900      6.57625700
H           4.59979700     12.82529500      5.55456200
H           3.92781400     12.52286100      7.16347200
C           5.87055200     13.47531500      7.19052200
H           5.62104100     14.51583300      6.90493300
H           6.90238500     13.29851800      6.85234400
C           5.78054300     13.37152900      8.72186900
O           6.71357300     12.75891300      9.29634300
O           4.77718700     13.84892100      9.26151600
P           5.15199500     12.31143100     12.45686500
O           4.81181100     10.89035900     12.33861800
O           4.13855900     13.35139800     11.83475200
H           4.40302000     13.54591600     10.81466000
O           5.19178400     12.71368000     14.00314800
H           5.41534300     13.71877600     14.05401400
O           6.61523400     12.68206800     11.96036600
H           6.63169000     12.77736400     10.89372400
          32
 G =       -0.343677 Gcorr = 0.183326 a.u. Nimag =   0 Frame:    19 Step:    19 Geom:    19
C           4.64499500      8.80934700      8.75444600
C           5.02606200      9.39189700      7.55352000
C           6.00610200     10.53997500      9.22989500
N           5.26512500      9.52967400      9.77714200
H           3.99911000      7.97158600      8.93941500
H           4.75986600      9.13490000      6.54561700
H           6.61258100     11.28004100      9.77622400
C           5.08074300      9.27982900     11.19512800
H           4.39032400     10.04190200     11.63624700
H           4.65960600      8.27917400     11.37719100
H           6.04248800      9.36640100     11.74967600
N           5.88127700     10.45145200      7.86387700
C           6.35660900     11.44479800      6.89704400
H           6.79979700     10.91288400      6.02626600
H           7.17598900     12.05279600      7.36590400
C           5.20020100     12.36767900      6.45366100
H           5.28193600     12.57114900      5.36961000
H           4.22458500     11.85672000      6.59750400
C           5.18949100     13.68122100      7.23279200
H           4.22186000     14.20247800      7.12042800
H           5.96679400     14.37738500      6.86844300
C           5.41363600     13.39001100      8.72115900
O           6.44442700     13.85301600      9.23589700
O           4.60627600     12.61723500      9.28123300
P           6.12255700     12.72754300     12.49135100
O           6.96442400     11.54817000     12.26368200
O           4.62109200     12.53320000     11.99405900
H           4.58108000     12.63158500     10.93671500
O           5.94930800     13.00270600     14.05271800
H           5.34272100     13.83291900     14.14878800
O           6.62696700     14.10786600     11.91486000
H           6.60197800     14.04247400     10.83952000
          32
 G =       -0.340221 Gcorr = 0.186206 a.u. Nimag =   0 Frame:    20 Step:    20 Geom:    20
C           4.83297600      8.64686100      8.70436400
C           5.09206400      9.30856900      7.51098300
C           6.08741500     10.45783900      9.17582400
N           5.46131400      9.36963300      9.71846900
H           4.26565000      7.75297300      8.88710500
H           4.78248000      9.07229000      6.50994500
H           6.63598600     11.25834700      9.72725800
C           5.41179300      9.02324700     11.12746200
H           5.20887500      7.95051800     11.27194700
H           6.37199600      9.26925100     11.63784000
H           4.61630400      9.61161600     11.64769100
N           5.87780100     10.41952700      7.82015100
C           6.30714200     11.42197500      6.84097200
H           6.64225200     10.89701300      5.91886800
H           7.20032600     11.97266300      7.24391700
C           5.16661400     12.41195300      6.52807200
H           5.14446000     12.61577900      5.43996100
H           4.18018200     11.96244000      6.76805100
C           5.31747200     13.72476100      7.29333300
H           4.45294000     14.38881100      7.10855900
H           6.21891900     14.27968100      6.97960200
C           5.40627500     13.42070700      8.79490400
O           6.55339700     13.15223400      9.22950500
O           4.35795600     13.38440400      9.44827100
P           5.92505200     12.70938400     12.56023500
O           6.19055700     11.27835200     12.37122400
O           4.46549500     13.18459000     12.16691200
H           4.40721500     13.26981900     11.10272800
O           6.03367000     13.08941300     14.10673900
H           5.81035100     14.09411700     14.18806900
O           6.94391900     13.69583400     11.85364000
H           6.86115200     13.53541700     10.79741300
          32
 G =       -0.338610 Gcorr = 0.187652 a.u. Nimag =   0 Frame:    21 Step:    21 Geom:    21
C           4.90186600      8.58658100      8.65102100
C           5.11502400      9.27684400      7.46446500
C           6.11080700     10.42672500      9.12812800
N           5.52933000      9.31054300      9.66433600
H           4.36593600      7.67251500      8.82861400
H           4.79105500      9.04842600      6.46615900
H           6.64500800     11.23556400      9.68303400
C           5.53639700      8.93501200     11.06648300
H           5.18179000      7.90281300     11.21124000
H           6.55653500      9.02301300     11.49984800
H           4.87424700      9.61909800     11.66084200
N           5.87359300     10.40538500      7.77699700
C           6.26528800     11.42968300      6.80479100
H           6.57220700     10.92511200      5.86170700
H           7.16973400     11.97521600      7.18923100
C           5.11239200     12.42135800      6.54892300
H           5.03279600     12.62162400      5.46283600
H           4.13824900     11.97631100      6.84183200
C           5.30800400     13.73589600      7.30048800
H           4.45498700     14.41788000      7.12667700
H           6.21492700     14.26851500      6.96542800
C           5.41896800     13.44239400      8.80316400
O           6.56054100     13.11215500      9.21044400
O           4.38902700     13.48289700      9.48365000
P           5.95524600     12.66864000     12.55126700
O           6.10478100     11.22369000     12.34072900
O           4.53310000     13.26824200     12.19646700
H           4.45702200     13.35853300     11.13252000
O           6.13006700     13.01798900     14.09920900
H           5.98917500     14.03583800     14.19789800
O           7.03750800     13.57752000     11.83394100
H           6.91439900     13.44800800     10.77764600
