%nproc=24
%mem=50GB
#p M062X/6-311+G(2d,p) nosymm em=GD3 counterpoise=3

Title Card Required

0 1
P          12.14062400      9.05279500     12.70469700       1
O          12.62407200      9.34106600     11.35292700       1
O          11.69363600      7.58293000     13.06515400       1
H          11.53812700      7.00932300     12.18486200       1
O          13.22946500      9.42343900     13.79794900       1
H          12.84155700      9.17532900     14.72491100       1
O          10.90713500      9.95820900     13.17579200       1
H          10.03991300      9.56768000     12.79584000       1
O          11.17167400      6.08944300     10.82820200       2
H          10.33812200      6.52878400     10.50738200       2
H          11.82623900      6.34333300     10.17646100       2
O          11.97240200     11.93069500     10.10706800       3
H          12.12696600     12.57314900     10.79973300       3
H          12.34757600     11.10451500     10.46229100       3

