%nproc=24
%mem=50GB
#p M062X/6-311+G(2d,p) nosymm em=GD3 counterpoise=2

Title Card Required

0 1
C          17.29936000      6.37306400     10.48909800         1
C          16.67787100      6.67354900     11.70680100         1
C          16.32895100      8.00066400     11.98130600         1
C          16.64566700      8.99321900     11.05563900         1
C          17.28550500      8.65995400      9.86531000         1
H          15.79232200      8.25248200     12.90244900         1
H          17.52380300      5.32882900     10.20701200         1
H          16.36586500     10.03757100     11.23836600         1
H          17.53630700      9.42051500      9.11080300         1
C          16.36748100      5.57495100     12.65454500         1
H          15.54036800      5.83984700     13.33811500         1
H          16.01514600      4.66571400     12.12995200         1
H          17.23374800      5.29568200     13.26704700         1
N          17.59911400      7.35976800      9.59963100         1
C          18.27881600      7.01875700      8.32619800         1
H          19.25093300      7.56070400      8.29803000         1
H          18.51153600      5.92388000      8.32038800         1
C          17.43181200      7.36096000      7.08710900         1
H          16.68542500      8.15655800      7.31488000         1
H          18.08510200      7.79607300      6.30516100         1
C          16.70630900      6.13869800      6.52813400         1
H          16.22920600      6.38123800      5.55698000         1
H          17.39334500      5.29779300      6.33388200         1
C          15.63495600      5.69897100      7.52223000         1
O          14.44016900      5.81529300      7.18782700         1
O          16.02315400      5.29106500      8.63841600         1
P          13.29394600      6.64332400     10.56512800         2
O          13.72668300      7.61447700     11.58271300         2
O          11.81458400      6.15797500     10.81170900         2
H          11.70201900      5.19720800     10.37597900         2
O          13.32466300      7.34570800      9.13664500         2
H          13.60102600      6.68425800      8.37403600         2
O          14.13415300      5.29787700     10.52712600         2
H          14.85601800      5.29150300      9.74154500         2



