%mem=50GB
%nprocshared=24
#p M052X/6-31G*

Title Card Required

0 1
 C                 -0.71290400   -0.83617000    0.90886500
 C                 -1.66135500   -1.77797000    0.53333900
 C                 -2.83643200   -1.37001700   -0.05771600
 C                 -3.08558500   -0.00520500   -0.27295200
 C                 -2.11857700    0.88064400    0.13870800
 H                 -3.57331900   -2.10162300   -0.36800200
 H                  0.25301100   -1.07833900    1.33996200
 H                 -1.43685100   -2.82350300    0.68702400
 H                 -2.22364700    1.94901200    0.01323700
 C                 -4.35062700    0.47248200   -0.92717900
 H                 -4.37888400    1.55975600   -0.99747500
 H                 -4.43789900    0.06635500   -1.93732000
 H                 -5.22774700    0.14578700   -0.36433700
 N                 -0.97113300    0.46686200    0.72657200
 C                  0.05660200    1.49000500    1.06227000
 H                 -0.48322400    2.31136700    1.53151700
 H                  0.72755000    1.03728000    1.78732400
 C                  0.83156500    1.97497800   -0.18219900
 H                  0.24301900    1.75034600   -1.07314400
 H                  0.91364400    3.06354700   -0.11977700
 C                  2.23318000    1.39315600   -0.35600400
 H                  2.92214800    1.74892400    0.41062000
 H                  2.63014600    1.66495300   -1.33328200
 S                  2.28347400   -0.42640900   -0.26796500
 O                  3.54384000   -0.82284700   -0.87446400
 O                  1.06027700   -0.85025200   -0.99491300
 O                  2.17078200   -0.71074800    1.18716300

