%mem=50GB
%nprocshared=24
#p opt freq b3lyp/6-311+g(2d,p) em=gd3bj

Title Card Required

0 1
 C                 -0.73113400   -0.83890200    0.93307000
 C                 -1.68198500   -1.77711300    0.55433400
 C                 -2.84847500   -1.36527100   -0.05309600
 C                 -3.08403800   -0.00027800   -0.28233900
 C                 -2.11335400    0.88179200    0.13277600
 H                 -3.58745000   -2.09403900   -0.36623700
 H                  0.23044100   -1.09022400    1.36865200
 H                 -1.46598600   -2.82316100    0.71856000
 H                 -2.20907800    1.94984100   -0.00578900
 C                 -4.33929700    0.48003000   -0.95637400
 H                 -4.36306700    1.56693100   -1.03870100
 H                 -4.41656300    0.06363400   -1.96341800
 H                 -5.22459800    0.16257000   -0.40059400
 N                 -0.97421100    0.46569400    0.73652200
 C                  0.05708700    1.48813500    1.07822600
 H                 -0.48312400    2.30856700    1.54994700
 H                  0.72438000    1.03485500    1.80685700
 C                  0.83973100    1.97866700   -0.16244800
 H                  0.25618400    1.75631100   -1.05771600
 H                  0.92148500    3.06737600   -0.09530600
 C                  2.24313700    1.39589400   -0.33260700
 H                  2.92452800    1.73352700    0.44926400
 H                  2.65176100    1.68477600   -1.30056700
 S                  2.28632200   -0.43069400   -0.27801200
 O                  3.54365800   -0.82084600   -0.89700600
 O                  1.05700800   -0.83502000   -1.00684200
 O                  2.17800500   -0.73756400    1.17363900

