%nproc=24
%mem=50GB
#p M062X/6-311+G(2d,p) nosymm em=GD3 counterpoise=2

Title Card Required

0 1
C          10.18345200     12.07911100      9.76090900       1
C          10.94969200     11.90007900      8.61248800       1
C          10.57791500     10.93985100      7.67136500       1
C           9.43153000     10.17518600      7.89357300       1
C           8.66400800     10.40972000      9.04572100       1
H          11.21034800     10.75901800      6.79626800       1
H          10.49150700     12.76950300     10.55395800       1
H          11.86517000     12.48455300      8.47464100       1
H           7.77211300      9.78881900      9.28046400       1
C           9.04071100      9.08073600      6.97178200       1
H           7.96038300      8.88187100      6.96599200       1
H           9.35400000      9.25996800      5.93528200       1
H           9.52745400      8.13246600      7.29227600       1
N           9.03614600     11.36070100      9.94051400       1
C           8.18194600     11.64365300     11.11984900       1
H           7.91457500     12.72365600     11.09776500       1
H           7.22056600     11.07947600     11.01257600       1
C           8.86190500     11.28414300     12.45605200       1
H           9.89786800     10.90486200     12.29062200       1
H           9.00360400     12.20687500     13.05358200       1
C           8.06126200     10.27347300     13.26402000       1
H           7.00920700     10.58125500     13.37470600       1
H           8.45990600     10.21357200     14.29488500       1
S           8.11114600      8.58845500     12.57490300       1
O           8.13226800      8.81333400     11.08081600       1
O           6.90850600      7.94065200     13.07265000       1
O           9.41161000      8.02912700     13.03185100       1
P          11.55887300      8.70956700     10.47477200       2
O          11.54232500     10.18331500     10.68773400       2
O          12.77813000      8.22174600      9.56362300       2
H          12.92472000      8.96529300      8.85133400       2
O          11.75424900      7.83501600     11.75754500       2
H          10.79598600      7.88434100     12.31109800       2
O          10.30034900      8.22554800      9.64994400       2
H           9.40842200      8.37729600     10.24515500			 2


