          22
 Energy =     -0.37909600 a.u.  #Cluster:    1
C           8.05955100     12.12174800     12.81008200
C           7.11715200     12.04903300     11.77608200
C           6.16695700     13.06047700     11.66723100
C           6.18133800     14.11318900     12.58215400
C           7.16318800     14.12081800     13.57845300
N           8.07930900     13.13817000     13.69443000
H           5.42530300     13.03472300     10.87029400
H           8.83780100     11.35723100     12.93536200
H           7.16138800     11.23097500     11.05938300
H           5.45598900     14.91711700     12.51855700
H           7.24543500     14.93769000     14.30558600
P          10.79936200     14.96968400     12.93736000
O          10.62007800     14.40264500     11.60482500
O           9.75303900     16.11995400     13.33634700
H           9.55221200     16.68638700     12.51435100
O          10.71620500     14.03749400     14.21146100
H           9.72631400     13.64892700     14.28173300
O          12.23567000     15.63528800     13.08869700
H          12.36753500     15.89998800     14.07508600
O           9.66415200     11.68434700     10.60365600
H          10.48967300     11.35711400     10.25439900
H           9.87235400     12.57701900     10.90448500
          22
 Energy =     -0.37864600 a.u.  #Cluster:    2
C           7.12095700     13.53519000     12.27415300
C           5.82857500     13.04263200     12.04950300
C           4.95299600     12.94808600     13.12863500
C           5.38385600     13.34223800     14.39476200
C           6.69052700     13.82283900     14.53705200
N           7.53868900     13.91703700     13.49536100
H           3.94122400     12.56927800     12.98589700
H           7.85585000     13.63236800     11.46044000
H           5.52148000     12.74197900     11.05213500
H           4.72286700     13.27851700     15.25383500
H           7.08738800     14.14631900     15.50674300
P          11.21345300     14.49382000     12.67924000
O          12.11473100     13.44204800     13.12967400
O          10.30733300     14.12989700     11.40546600
H          10.78029200     13.41135500     10.84348000
O          10.14521800     15.08809600     13.68088900
H           9.24967600     14.52071400     13.60628500
O          12.03164800     15.78793300     12.23898000
H          11.36911000     16.54939700     12.05359200
O          11.87965300     12.02511700     10.09447200
H          11.97823400     11.51507600     10.90694700
H          12.71624900     12.49007700     10.00247100
          22
 Energy =     -0.37844300 a.u.  #Cluster:    3
C           7.93762300     13.82168300     14.55721400
C           7.01729200     14.59398000     13.83791500
C           6.44565300     14.05138800     12.68859800
C           6.79297300     12.75826100     12.29890300
C           7.71897300     12.05147800     13.07399100
N           8.28672900     12.57330300     14.18079400
H           5.74709100     14.63958100     12.09166700
H           8.44152100     14.20818600     15.45040600
H           6.77788600     15.60262000     14.15723700
H           6.36647500     12.31197200     11.40723600
H           8.04697300     11.04105500     12.80368300
P          10.76813500     13.91159100     12.35143500
O          10.28902300     13.27489200     11.12859200
O           9.76890000     14.99523200     12.98336400
H           9.02751700     15.21045100     12.30175400
O          11.11449600     13.01317900     13.61416100
H          10.22284400     12.59474500     13.98179400
O          12.13154200     14.69407600     12.12559100
H          12.44895700     15.05413600     13.03942600
O           7.82042500     15.26703300     10.74290900
H           8.09571400     14.37192500     10.49846000
H           8.29327100     15.83924700     10.13488500
          22
 Energy =     -0.37836200 a.u.  #Cluster:    4
C           6.42629300     12.28464700     12.62116100
C           5.55428600     11.98905200     13.67497900
C           5.72434300     12.65634400     14.88745800
C           6.74976800     13.59006700     15.01444000
C           7.58062900     13.83047100     13.91167300
N           7.41579800     13.19053900     12.73904700
H           5.06163600     12.44774300     15.72692200
H           6.34576500     11.78972000     11.64618200
H           4.76472000     11.25473400     13.54844100
H           6.90910900     14.12272700     15.94718900
H           8.40924700     14.55415000     13.95667100
P          10.83760400     13.88611800     11.45904500
O          11.91125400     14.28469900     10.55507000
O          10.58895000     14.87898900     12.69558000
H          10.94145900     15.81436800     12.45492000
O           9.44092200     13.71862500     10.75566300
H           8.71823700     13.45373500     11.49478500
O          10.98017500     12.49190000     12.23045300
H          11.82711000     12.52942800     12.80495900
O          11.71898200     17.40223100     11.68594600
H          11.18095700     17.49109800     10.89391500
H          12.53276800     16.98862500     11.37551400
          22
 Energy =     -0.37831200 a.u.  #Cluster:    5
C           7.62298100     13.29125800     15.44223400
C           6.38417500     12.70932300     15.73252400
C           5.60613500     12.23711500     14.67591400
C           6.08089700     12.35725500     13.37249000
C           7.33275900     12.95272100     13.16425400
N           8.08514600     13.40957900     14.18262100
H           4.63691400     11.77845000     14.86983200
H           8.27899600     13.67957200     16.22994000
H           6.03936600     12.62810500     16.75870000
H           5.49834700     11.99836900     12.52923000
H           7.75591700     13.07212300     12.15418300
P          10.71854600     14.68859700     11.89473300
O          11.97116000     15.26085300     11.41281800
O          10.38355000     13.18111800     11.48321600
H          10.85890300     12.98424400     10.58231600
O          10.57338500     14.67848900     13.46217900
H           9.68339600     14.15129300     13.71953300
O           9.37828800     15.38050400     11.33808200
H           9.43714900     16.38329000     11.50697600
O          11.97321900     12.87001700      9.03118200
H          11.75173500     13.68268300      8.56720300
H          12.80904700     13.06505100      9.46984900
          22
 Energy =     -0.37804100 a.u.  #Cluster:    6
C           7.98594200     12.72276500     14.01328700
C           6.94908200     11.83256200     14.32430300
C           5.65621900     12.33271500     14.45765000
C           5.42946500     13.69668600     14.27737100
C           6.51772200     14.52016000     13.96780800
N           7.76992800     14.04045500     13.84229400
H           4.82918800     11.66570200     14.69936200
H           9.02603700     12.38163200     13.89192400
H           7.15616100     10.77471200     14.45593100
H           4.43172000     14.11368500     14.37332900
H           6.40153300     15.59889900     13.81088300
P          10.87657000     14.65174800     11.97968900
O          10.92749700     13.19635800     12.10782700
O          10.22075700     15.20661700     10.63263200
H          10.34629300     14.49813100      9.89099600
O          10.12244900     15.50603500     13.07766800
H           9.19689500     15.02733100     13.29028000
O          12.33720000     15.28948300     12.00587100
H          12.24236800     16.31308600     12.01891100
O          10.71145000     12.95588900      8.78141900
H          10.35151900     12.30705900      9.39688000
H          11.66401200     12.87830300      8.88369700
          22
 Energy =     -0.37786100 a.u.  #Cluster:    7
C           8.04887500     12.21431900     13.49422700
C           8.38314600     12.79812800     14.72105000
C           7.96982000     14.10640800     14.97192800
C           7.23064500     14.78528900     14.00470100
C           6.93438700     14.12829600     12.80446200
N           7.33731200     12.86506000     12.55149200
H           8.23974700     14.59922100     15.90695200
H           8.37063200     11.20123400     13.23036100
H           8.96337200     12.24971500     15.45453800
H           6.90980900     15.80919300     14.16484600
H           6.37992600     14.62172500     11.99730600
P          10.11456800     14.11725900     11.02836800
O          11.12789000     14.70466900     10.17403700
O           9.21236800     15.10573400     11.89675000
H           9.56644200     15.13219800     12.86932800
O           9.07081500     13.23480600     10.24295800
H           8.30532400     12.92543600     10.89744500
O          10.66743900     13.16692500     12.22107300
H          11.39211800     12.55557500     11.87836200
O          10.44270700     14.90608800     14.63936200
H          11.25111500     15.41207600     14.54384300
H          10.64155100     14.04066100     14.25662400
