%nproc=8
%mem=5GB
#p M062X/6-311+G(2d,p) nosymm em=GD3 counterpoise=4

Title Card Required

0 1    
C          13.77381300     17.67676100     15.61013200         1
H          14.38280800     17.09219500     14.87908400         1
H          14.47129500     18.16406700     16.30377000         1
H          13.16541300     16.93391700     16.15887800         1
C          12.20749500     19.52625000     15.91647400         1
H          11.59755200     20.30903200     15.43283600         1
H          11.53411300     18.91214800     16.53973200         1
H          12.92674900     20.02778700     16.58457200         1
C          13.78720200     19.54258100     14.03921000         1
H          13.20040100     20.20281300     13.37102800         1
H          14.47828400     20.14537600     14.64043800         1
H          14.39442200     18.91909500     13.34061100         1
C          11.88703700     17.93221000     14.05193300         1
H          11.33594900     17.21195100     14.69832200         1
H          12.46076300     17.28557100     13.33185500         1
C          10.91392600     18.85824300     13.30897800         1
H          11.32721300     19.88260500     13.19521900         1
H           9.96937300     18.96345300     13.87333600         1
C          10.62657700     18.31322300     11.90879800         1
H          10.02643000     19.02533500     11.31623000         1
H          10.03878000     17.37564600     11.95276300         1
N          12.90938700     18.67870600     14.89525200         1
C          11.95839800     18.07338800     11.18312800         1
O          12.82370300     18.95939900     11.26150300         1
O          12.09224700     16.95631800     10.63217500         1
P          15.39207600     16.59722000     11.50739900         2
O          15.04061200     16.32934700     12.90972900         2
O          16.88568800     16.12462100     11.22335700         2
H          17.08447200     16.33545300     10.22996000         2
O          14.53618600     15.86167500     10.40233700         2
H          13.55377700     16.30109700     10.40104800         2
O          15.40671600     18.14083600     11.13325600         2
H          14.40054500     18.48719000     11.05916800         2
O          11.10099700     15.03829900     12.28057000         3
H          11.43850000     15.71673600     11.64326400         3
H          11.17454000     14.21564600     11.80568200         3
O          12.77372600     15.15883300     14.51086000         4
H          13.60812700     15.22178800     14.03477300         4
H          12.12472400     15.00322100     13.80235900         4 


