          37
 Energy =  -1636.80315060 a.u.  #Cluster:    1
C          10.32048400      8.12366500     10.25075000
H          10.54284300      7.72833200      9.23846100
H          10.20117400      7.29032900     10.95333200
H          11.22823200      8.69980600     10.54756900
C           9.29483900     10.02318700      9.10415000
H           9.23410000      9.48278200      8.12981000
H          10.35922200     10.40233600      9.17108900
C           8.95297000      9.68979000     11.55290000
H           7.97303700     10.17921300     11.64959400
H           9.08722700      8.98485600     12.38597900
H           9.72689200     10.49165400     11.68234700
C           7.89651800      8.16743400      9.95571500
H           7.72385700      7.44184900     10.76673700
H           6.99155200      8.79101700      9.85434500
H           8.01558700      7.60242700      9.01286300
C           8.32611500     11.20685700      9.13105200
H           8.55467300     11.88264000      9.98971000
H           7.28229800     10.87213400      9.27116000
C           8.43892900     11.99026400      7.82619500
H           7.64204900     12.75258800      7.76704700
H           8.29853000     11.34334600      6.94633600
N           9.10746200      9.01487200     10.22404600
S          10.03679300     12.85943700      7.65632900
O          10.14988500     13.65946200      8.89992300
O          11.04100500     11.72922000      7.67233600
O           9.94722300     13.58493700      6.40182900
P          12.55057500     12.00869300     10.84135300
O          11.66590800     10.93159700     11.30819800
O          13.17593900     11.78737900      9.40213600
H          12.38923400     11.74924400      8.68703300
O          11.97376900     13.47475500     10.90589300
H          11.23777200     13.59588200     10.13121300
O          13.83690000     12.07892500     11.78392000
H          14.42483700     12.85360000     11.43723000
O          11.25749700      9.02600700      7.26177000
H          12.03825400      8.86542700      6.74502300
H          11.22583700     10.01408000      7.34464600
          37
 Energy =  -1636.80302210 a.u.  #Cluster:    2
C           9.99052300      8.33257400     10.39868900
H          10.30828000      7.85136600      9.45202400
H           9.74455200      7.56478800     11.14097700
H          10.89102100      8.88840400     10.76381100
C           9.19853600     10.15484200      8.97656300
H           9.18199800      9.52643100      8.05492800
H          10.27876000     10.46654300      9.10607200
C           8.60307100     10.08933900     11.40023800
H           9.40463700     10.86549000     11.52575100
H           7.64388500     10.62401700     11.35771700
H           8.63097300      9.46669000     12.30632500
C           7.61254200      8.47296400      9.85463800
H           7.31480300      7.84709000     10.71125700
H           6.76420600      9.13021500      9.59785900
H           7.78819700      7.80597600      8.99073600
C           8.32396500     11.39761700      8.80260700
H           8.47215300     12.10782000      9.65052300
H           7.24995000     11.13723000      8.80121400
C           8.68314400     12.09409100      7.49258800
H           7.95767400     12.89751800      7.27428500
H           8.63102700     11.40445200      6.63540200
N           8.84296500      9.27770000     10.16345600
S          10.34515300     12.85076500      7.52533000
O          10.36251300     13.63961700      8.78269600
O          11.25927300     11.65357600      7.65533600
O          10.46097200     13.58382700      6.27777800
P          12.44736400     11.86560900     10.95344000
O          11.42943700     10.87094400     11.32900100
O          13.20159900     11.57201100      9.59214200
H          12.49138400     11.58362200      8.79742100
O          11.98153500     13.37154100     10.94374800
H          11.32647600     13.52867400     10.10324100
O          13.62373800     11.84763900     12.03141400
H          14.30858300     12.56524300     11.74375400
O          11.25041500      8.91534800      7.40226800
H          12.08216000      8.65370800      7.02486800
H          11.30255400      9.90474100      7.42991400
          37
 Energy =  -1636.80292840 a.u.  #Cluster:    3
C           9.82295800      8.32352900     10.43887600
H          10.02422200      7.72301100      9.53181500
H           9.59955000      7.66101000     11.28304700
H          10.78699100      8.85008000     10.65953500
C           9.10822700     10.15713800      8.99243800
H           9.14771800      9.49782300      8.09619700
H          10.17473900     10.49711900      9.16110400
C           8.54112600     10.17124800     11.41733700
H           9.39299100     10.89589300     11.52141700
H           7.61917500     10.76729500     11.36726300
H           8.53413900      9.56890700     12.33718200
C           7.44822700      8.57003700      9.92409400
H           7.15372000      7.95081700     10.78716300
H           6.61888100      9.26327400      9.70222000
H           7.56560200      7.90255000      9.05149300
C           8.21858700     11.37527600      8.73760300
H           8.27660200     12.09314300      9.58950200
H           7.15568800     11.08665600      8.64705500
C           8.66842800     12.07638200      7.45842100
H           7.95677000     12.87662300      7.18895600
H           8.68240500     11.38813800      6.59867800
N           8.72053200      9.31918600     10.19722100
S          10.32181500     12.83771100      7.61470400
O          10.27789600     13.53818600      8.92514000
O          11.23399100     11.63846400      7.71309500
O          10.48850300     13.65649900      6.42838100
P          12.45207800     11.76119700     10.99846500
O          11.43769000     10.76362700     11.37484900
O          13.18083700     11.48093400      9.61938800
H          12.46576500     11.55048300      8.83082200
O          11.98962500     13.26783700     11.01135700
H          11.29021700     13.42571000     10.20593300
O          13.64857200     11.72640500     12.05233600
H          14.33126500     12.44408900     11.75807000
O          11.53504300      8.86970800      7.94180100
H          12.44154900      8.80020100      8.23446300
H          11.44789000      9.82383000      7.71259400
          37
 Energy =  -1636.80281720 a.u.  #Cluster:    4
C          10.00261000      8.42401600     10.96096700
H          10.10898600      7.52903000     10.32952000
H           9.82493200      8.11577900     12.00073300
H          10.99175000      8.95091300     10.94256100
C           9.24081100      9.71916200      9.02011100
H           9.43631800      8.80001600      8.42503900
H          10.22874300     10.26194100      9.04353500
C           8.85032500     10.54209900     11.33981600
H           8.19278800     11.32920700     10.91756100
H           8.52661500     10.29111200     12.35549100
H           9.84723000     11.04075500     11.40180200
C           7.60785600      8.59743300     10.51381700
H           7.40261000      8.21870400     11.52858300
H           6.77021400      9.25861200     10.22877400
H           7.60620100      7.73788500      9.82187800
C           8.15434400     10.57404000      8.35384400
H           7.61236000     11.19725200      9.09796000
H           7.38761200      9.92086600      7.89188500
C           8.75693900     11.47759000      7.28420500
H           7.95967800     11.95360400      6.68655600
H           9.35236300     10.88630700      6.56137600
N           8.91562600      9.33178300     10.45572400
S           9.82163700     12.79415800      7.97160900
O           9.65973700     12.65566600      9.45729900
O          11.19519700     12.33740200      7.57364900
O           9.35952300     14.04308400      7.39527100
P          12.88399700     11.68330000     10.48474500
O          12.51926000     10.27286300     10.28403400
O          13.36441500     12.47469600      9.20722200
H          12.57044700     12.44368200      8.48041400
O          11.76032900     12.55350000     11.19038700
H          10.93955600     12.68128600     10.51938100
O          14.11060500     11.79847400     11.49451800
H          14.33022200     12.80401800     11.58968100
O          11.57608300      9.54625600      7.37117700
H          12.26497600      9.44511400      8.03179300
H          11.53712300     10.51841300      7.24710200
          37
 Energy =  -1636.80261210 a.u.  #Cluster:    5
C          10.18991400      8.12520300     10.16766400
H          10.35348700      7.60864400      9.20262400
H          10.09739500      7.38666400     10.97289500
H          11.12358400      8.71396900     10.34067400
C           9.22605200     10.02524800      8.97173100
H           9.29582200      9.46406100      8.01256300
H          10.25446800     10.47001400      9.13453000
C           8.82518200      9.74184800     11.41007800
H           7.86823500     10.28098900     11.46274300
H           8.89589500      9.04814300     12.25986000
H           9.63361300     10.50777600     11.55242000
C           7.77429200      8.20239300      9.82414200
H           7.60564700      7.46137700     10.62259700
H           6.87097500      8.83171100      9.74705900
H           7.87983900      7.65584800      8.86965000
C           8.19381800     11.15038600      8.87583200
H           8.26378800     11.82496400      9.76205400
H           7.16208100     10.75478500      8.86798900
C           8.43768200     11.96069100      7.60564600
H           7.62776600     12.69672400      7.45860800
H           8.42998900     11.32513500      6.70656000
N           8.99279700      9.03533500     10.09902800
S          10.01550200     12.88132800      7.64883900
O          10.00104800     13.56353200      8.96825000
O          11.04588800     11.77770300      7.65844700
O          10.00811600     13.72023800      6.46469600
P          12.47854900     11.97861900     10.86509000
O          11.62718900     10.85857200     11.29049000
O          13.12890600     11.81259800      9.42829600
H          12.35658400     11.81278400      8.69562400
O          11.84770600     13.42060100     10.95248300
H          11.09283100     13.52121700     10.19134900
O          13.75122200     12.07162300     11.82259000
H          14.31312000     12.87687600     11.50219200
O          11.73475100      9.07530100      7.76811200
H          12.66025700      9.12267500      8.00061700
H          11.50602600     10.01443500      7.57599200
          37
 Energy =  -1636.79826800 a.u.  #Cluster:    6
C          10.33233600      8.28288700     10.33921200
H          10.23275700      7.37871600      9.72294900
H          10.57190200      8.00909300     11.37672600
H          11.23115400      8.82946200      9.94435800
C           9.13793500      9.84782700      8.90521000
H           9.19868000      9.08559100      8.09811200
H          10.12537700     10.39876600      8.87244600
C           9.09479200     10.15816800     11.37175900
H           8.08548500     10.34549200     11.75628400
H           9.75193500      9.85598600     12.20627700
H           9.50129700     11.14575300     11.02659500
C           7.89035300      8.27455500     10.36266200
H           7.88332700      7.72474800     11.31881600
H           6.96351100      8.87089100     10.30305000
H           7.86021600      7.53545400      9.54344800
C           7.98441600     10.82422500      8.65867000
H           7.73103400     11.39336600      9.58092500
H           7.06429600     10.27930900      8.37441300
C           8.35962000     11.80591200      7.55107500
H           7.50251500     12.45783400      7.30790000
H           8.60642000     11.27750600      6.61451300
N           9.10387700      9.15129400     10.25379600
S           9.77649200     12.87025700      7.99605100
O           9.67801900     13.01109200      9.47926200
O          10.95799900     11.99115600      7.67242400
O           9.64102200     14.07883000      7.20651500
P          12.65206000     11.70303100     10.75851600
O          11.93689000     10.45970700     11.07677400
O          13.18115600     11.82740600      9.27045800
H          12.34973700     11.91877700      8.61064900
O          11.87892100     13.03839100     11.10547500
H          10.98664000     13.08467400     10.51596600
O          13.98641900     11.80841800     11.62339000
H          14.44678600     12.69638200     11.36249200
O          11.63218500      9.26989900      7.38786700
H          12.57368600      9.27232300      7.54871200
H          11.40877100     10.22684200      7.34626800
          37
 Energy =  -1636.79680580 a.u.  #Cluster:    7
C           9.80858200      8.37991000     10.41481000
H           9.51678000      7.37854900     10.07386000
H          10.07442300      8.34473900     11.48493700
H          10.75883600      8.63366600      9.87878300
C           9.02505000      9.99634700      8.76115200
H           9.06161300      9.17847300      8.00869200
H          10.08027200     10.40046700      8.81845400
C           8.74483700     10.48452500     11.18104300
H           9.35112300     11.36788300     10.84635500
H           7.73754000     10.85753200     11.40137500
H           9.22047600     10.14869900     12.11870700
C           7.40211600      8.72194200     10.13676700
H           7.20533100      8.24575100     11.11210300
H           6.58792000      9.43989400      9.93614600
H           7.35178100      7.94244400      9.35691500
C           8.06185400     11.10482300      8.32630500
H           7.78649100     11.76176900      9.18141700
H           7.11258100     10.67437400      7.95486200
C           8.70142200     11.95313900      7.22978800
H           7.98011100     12.69678700      6.84842900
H           8.98117900     11.33656800      6.35859700
N           8.73843700      9.40642100     10.13117000
S          10.19140100     12.84473900      7.79934100
O           9.94407400     13.08649700      9.25144700
O          11.26678400     11.79677700      7.66211300
O          10.31854900     14.01009400      6.94604200
P          12.54008100     11.46884300     10.95788700
O          11.61707600     10.37604200     11.28618000
O          13.23231200     11.38314400      9.53502900
H          12.50698300     11.56766000      8.77899700
O          11.95008300     12.92865000     11.11486100
H          11.13830700     13.05098400     10.43094500
O          13.78197100     11.46092900     11.95696300
H          14.39838000     12.24310300     11.68091800
O          11.55120600      9.01936600      7.52070800
H          12.46837800      8.89118000      7.75327000
H          11.47567700      9.99730800      7.43464800
