%nproc=10
%mem=5GB
#p M062X/6-311+G(2d,p) nosymm em=GD3 counterpoise=2

Title Card Required

0 1  
C           4.36393300     12.69305900     10.94130600           1
H           4.11575300     12.15539900     10.01365400           1
H           5.25453600     13.31271200     10.76701400           1
H           4.63474000     11.91404900     11.70121200           1
C           2.83474800     14.52376200     10.38404100           1
H           2.58450300     14.03772400      9.42620400           1
H           1.95472400     15.11396000     10.69922200           1
H           3.66242600     15.22935800     10.20256500           1
C           2.04207200     12.58953600     11.66098500           1
H           1.20941200     13.08931600     12.19609400           1
H           1.67142200     12.15899800     10.72319900           1
H           2.33511000     11.75160600     12.33894600           1
C           3.62551200     14.22462000     12.70933300           1
H           4.52506200     14.83552400     12.49397800           1
H           3.95067400     13.42869900     13.43820900           1
C           2.52227400     15.09145100     13.33452300           1
H           1.51348800     14.77821000     12.98957500           1
H           2.63909100     16.14877300     13.03829000           1
C           2.54875400     14.96294700     14.85905400           1
H           1.69674600     15.49151000     15.32001400           1
H           3.46059100     15.40629100     15.29424400           1
N           3.20139700     13.51314400     11.43134000           1
C           2.46276400     13.47610100     15.26211000           1
O           1.77975700     12.74494500     14.50636800           1
O           3.11749200     13.11508900     16.24365600           1
P           4.10856200     10.08196600     14.64854900           2
O           4.65321300      8.74646400     14.44359600           2
O           4.30432000     10.64484700     16.10751000           2
H           3.80840700     11.58459200     16.20414300           2
O           4.83080800     11.20954400     13.70479500           2
H           5.81206200     11.23431500     13.91988700           2
O           2.61350100     10.25449000     14.19356300           2
H           2.25214400     11.24702100     14.45284200           2



