%nproc=24
%mem=50GB
#p M062X/6-311+G(2d,p) nosymm em=GD3 counterpoise=3

Title Card Required

0 1
C          10.63574900      8.30832300     11.42899100      1
C          11.64880900      9.26019000     11.41838900      1
C           9.69295100     10.32785900     11.74135200      1
N           9.43663300      8.98832000     11.63256200      1
H          10.68690600      7.23969800     11.27207600      1
H          12.70019000      9.13815700     11.24726500      1
H           8.94435000     11.11303100     11.86216300      1
C           8.10557000      8.40913600     11.62411200      1
H           8.13278900      7.34663500     11.29552800      1
H           7.63553600      8.46867800     12.61819400      1
H           7.45182100      8.93937600     10.88539500      1
N          11.04924600     10.50596100     11.62385700      1
C          11.72191300     11.80459800     11.54459600      1
H          12.44542500     11.87391900     12.38983300      1
H          10.96276800     12.61504200     11.68988500      1
C          12.46014000     12.01639300     10.20198700      1
H          13.32301200     12.69012200     10.38407300      1
H          12.90531300     11.05475500      9.85635100      1
C          11.58933200     12.60847000      9.09626600      1
H          12.18212400     12.75151800      8.17453200      1
H          11.21703300     13.61072400      9.37108800      1
S          10.18383600     11.53270800      8.74442200      1
O           9.58356000     11.85542700      7.45054600      1
O          10.74559500     10.16272100      8.85673500      1
O           9.26400200     11.83811600      9.89812700      1
O           7.11140600     10.24221600      7.38555800      2
H           7.89380500     10.78126200      7.16761100      2
H           6.85185700     10.55492500      8.26357100      2     
O           6.71101300     11.18254500     10.14418300      3
H           7.66715700     11.44222100     10.05575700      3
H           6.23457000     12.00153700     10.09009000      3

