          46
 Energy =  -1866.13187460 a.u.  #Cluster:    1
C           3.50078100      7.90974000     11.01080200
H           3.41117900      7.42740700     10.01688600
H           2.49339900      8.00680000     11.43698000
H           4.08325600      7.21026200     11.64998400
C           5.50974100      9.04986000     10.17317100
H           5.29413800      8.85415200      9.09379900
H           5.97312000      8.10330400     10.55779900
C           4.40520800      9.78597700     12.28571900
H           5.18646400      9.19833700     12.82161500
H           4.74505400     10.83274500     12.26224900
H           3.48541000      9.73228500     12.88759500
C           3.30963000     10.18152400     10.13058800
H           2.35545200     10.36302400     10.64603800
H           3.80812500     11.14847600      9.95806200
H           3.07169900      9.75534600      9.12651500
C           6.48530200     10.22214400     10.32240200
H           6.93623600     10.22485700     11.34339000
H           5.96180100     11.19085800     10.21279600
C           7.59098400     10.13595800      9.27522400
H           8.16116500     11.08170000      9.24244400
H           7.17548400     10.01711200      8.25512300
N           4.18958200      9.24375900     10.90321900
S           8.76333500      8.78387000      9.58459700
O           9.14201800      8.89260100     11.00578100
O           7.94550400      7.55560300      9.31257800
O           9.83904100      9.01130200      8.60449400
P           7.45247400      6.25896500     12.61172400
O           6.21466600      7.03569200     12.73602000
O           8.79831800      6.99917900     12.98280100
H           8.97250700      7.77343100     12.27406800
O           7.42509600      5.03745600     13.63811000
H           8.31155000      4.52126400     13.52164100
O           7.66661200      5.53269100     11.21865800
H           7.76953400      6.25537800     10.45449400
O           3.35973700      8.17436100      7.73814100
H           4.30292400      7.91608000      7.61066600
H           2.91609500      7.85334600      6.96044900
O           5.98290300      7.53374300      7.39429500
H           6.66756400      7.34790800      8.08029200
H           6.42153000      8.14238000      6.78427000
O           9.94228100      8.98956500      5.93430400
H           9.97325600      8.83392700      6.91898000
H          10.51604300      9.74051300      5.81649700
O           7.27244800      9.42069300      5.75673200
H           7.09336200      9.22001700      4.84333900
H           8.24800200      9.28442500      5.84468700
          46
 Energy =  -1866.13122750 a.u.  #Cluster:    2
C           3.55565100      8.05244100     10.78979300
H           3.50909500      7.64277800      9.76221500
H           2.52941500      8.14671300     11.16920500
H           4.08410500      7.29408500     11.40791900
C           5.60900800      9.21791400     10.09276100
H           5.41637200      9.22643700      8.99393300
H           6.01117300      8.18920100     10.31221000
C           4.46626900      9.78649300     12.24605300
H           5.24000400      9.15264800     12.74528200
H           4.80159900     10.83087200     12.32647600
H           3.53719600      9.67080200     12.82380300
C           3.44025500     10.39655100     10.10979200
H           2.48465300     10.56697100     10.62603300
H           3.97284400     11.35678200     10.02364800
H           3.20622900     10.05940700      9.07203500
C           6.64933500     10.28216900     10.46006900
H           7.03006900     10.11380200     11.49580300
H           6.19987400     11.29314000     10.45499100
C           7.81493200     10.24986000      9.47612600
H           8.46663400     11.12988900      9.62404200
H           7.46292700     10.32643200      8.42873800
N           4.27972300      9.37166900     10.81664300
S           8.83036600      8.75839100      9.64336300
O           9.28219200      8.72669300     11.04653300
O           7.85619200      7.65199300      9.34126900
O           9.88418600      8.90566900      8.62699800
P           7.24517200      6.34636700     12.58746200
O           6.11660700      7.28070500     12.67927700
O           8.66541100      6.89608000     13.00161900
H           8.95878300      7.64275900     12.29706400
O           7.01904900      5.13114400     13.59589000
H           7.83589400      4.50579800     13.50723000
O           7.39527700      5.61581100     11.18769500
H           7.57123900      6.33893900     10.43557600
O           3.53567500      8.57875000      7.55600000
H           4.44290100      8.19644800      7.45891200
H           3.09961100      8.37022100      6.73756300
O           6.04325000      7.61604700      7.25256700
H           6.66584100      7.45696100      8.00103700
H           6.48166900      8.30975400      6.73954800
O           9.93436300      9.17711900      5.96145000
H          10.04130300      9.17451900      6.95225600
H          10.13325700      8.27509700      5.72274200
O           7.30411100      9.78577800      5.98616000
H           7.10796200     10.02861200      5.08927500
H           8.27233000      9.58331100      5.98496400
          46
 Energy =  -1866.13079610 a.u.  #Cluster:    3
C           3.58911100      7.99013900     10.81262500
H           3.45138500      7.61100500      9.77771800
H           2.60781200      8.02488600     11.30180500
H           4.21309300      7.23665000     11.34814900
C           5.55941400      9.23827500     10.02885100
H           5.32176500      9.23059500      8.93886700
H           6.01623600      8.22843100     10.23325000
C           4.48685400      9.76482300     12.22915900
H           5.31589400      9.17275800     12.69392700
H           4.76500100     10.82597300     12.29614600
H           3.59530300      9.59258400     12.85030100
C           3.34601300     10.32550800     10.14041100
H           2.40535300     10.44920800     10.69764200
H           3.83017400     11.31001800     10.04230600
H           3.08475900      9.98171200      9.11575400
C           6.56411800     10.35054900     10.34889700
H           6.93049600     10.26107200     11.39903800
H           6.08695500     11.34585700     10.27165300
C           7.74910300     10.28574400      9.39067400
H           8.35556300     11.20658000      9.46620200
H           7.41505600     10.25023700      8.33543700
N           4.25811800      9.33670600     10.80982600
S           8.83058000      8.86812100      9.71229700
O           9.18567600      8.94210200     11.14196100
O           7.94450600      7.68724400      9.42075800
O           9.93732300      9.01846100      8.75407700
P           7.21311500      6.44613000     12.63298100
O           5.97874700      7.24081800     12.55873900
O           8.50029400      7.19393300     13.16016500
H           8.81288400      7.89995200     12.42502800
O           7.02526900      5.26563300     13.68870900
H           7.91491800      4.74200900     13.72092400
O           7.60291800      5.67976200     11.30286800
H           7.72488000      6.38980900     10.52315400
O           3.53259000      8.05708000      7.74436900
H           4.48425600      7.81325000      7.61617400
H           3.08086900      7.63594100      7.02141200
O           6.12739900      7.44882900      7.36988400
H           6.76329000      7.36437800      8.11887600
H           6.52354300      8.13146700      6.81163000
O           9.97971300      9.04750000      6.06999000
H          10.08328200      9.13808200      7.05684500
H          10.21794500      8.13750800      5.91169900
O           7.32707700      9.56172600      5.95148400
H           7.15077000      9.70610000      5.02941000
H           8.30058600      9.39487300      5.99795700
          46
 Energy =  -1866.13056920 a.u.  #Cluster:    4
C           3.53175200      8.13605500     10.75820700
H           3.39306100      7.88669000      9.68540100
H           2.54556300      8.15623100     11.23879200
H           4.11841000      7.30225300     11.21022000
C           5.55311400      9.38482600     10.12823200
H           5.31871100      9.54379600      9.04696600
H           5.95338600      8.33320900     10.18946800
C           4.49013100      9.69791000     12.37478200
H           5.28708700      9.01932000     12.77180800
H           4.81704900     10.73033000     12.56272000
H           3.58579800      9.49865900     12.96896600
C           3.38597900     10.54080500     10.36233900
H           2.45128400     10.64377700     10.93296400
H           3.91253500     11.50759700     10.36814800
H           3.10910500     10.31926100      9.30558500
C           6.62143300     10.38199700     10.58840200
H           6.99015700     10.12460700     11.60937800
H           6.20275000     11.40316200     10.66150600
C           7.78973200     10.38330400      9.60605500
H           8.43519600     11.26329700      9.77703500
H           7.43693100     10.47274200      8.56193800
N           4.25416800      9.44630600     10.91559100
S           8.82015400      8.89565800      9.73550000
O           9.20982800      8.79058900     11.15335400
O           7.88205000      7.78916500      9.33171700
O           9.90424800      9.11109900      8.76560400
P           7.09339700      6.25005800     12.38123100
O           5.89911600      7.10679000     12.39669200
O           8.41410000      6.87482200     12.98245900
H           8.76670200      7.63459000     12.32517300
O           6.84745400      4.97515000     13.30743500
H           7.71115600      4.40934100     13.28186900
O           7.44909300      5.61237400     10.97653500
H           7.60098700      6.39706300     10.27551800
O           3.37389600      8.79064800      7.72973300
H           4.32032500      8.57843600      7.56558100
H           2.92660300      8.52893400      6.93122800
O           6.04583000      8.27019400      7.37645300
H           6.67958900      7.94308200      8.05519900
H           6.53672800      8.23103500      6.54410900
O          10.21078100      8.51397800      6.13060700
H          10.12832300      8.81243700      7.07275100
H          10.70922100      7.70485200      6.19613100
O           7.68885400      8.26545800      5.11232500
H           7.67202800      9.02024700      4.53346400
H           8.59621500      8.27788400      5.49485400
          46
 Energy =  -1866.13044070 a.u.  #Cluster:    5
C           3.53844000      7.96050100     10.62796900
H           3.44934700      7.59520800      9.58748600
H           2.53548400      7.99748600     11.07210700
H           4.12968900      7.19342900     11.18384300
C           5.53719900      9.20971900      9.92619600
H           5.32298600      9.22232500      8.83141500
H           5.98597200      8.19501700     10.12542600
C           4.41716300      9.68985100     12.11293600
H           5.23927200      9.08759300     12.57805400
H           4.69115800     10.74934200     12.21458000
H           3.51446800      9.49743800     12.71158000
C           3.33105600     10.31532900     10.01355600
H           2.37963500     10.43554300     10.55287700
H           3.82671400     11.29719300      9.95077100
H           3.08988000     10.00250100      8.97402000
C           6.53934500     10.31266700     10.28319600
H           6.86560100     10.22271600     11.34627700
H           6.07532100     11.31230500     10.18604000
C           7.75855900     10.23193000      9.36951000
H           8.36693500     11.14941800      9.45830100
H           7.46403900     10.18475800      8.30252200
N           4.21856000      9.30132800     10.67788900
S           8.81743300      8.80801300      9.74579500
O           9.08458500      8.87007600     11.19550800
O           7.94460800      7.63728300      9.38973000
O           9.98252500      8.97314300      8.86179100
P           7.05876100      6.32764000     12.52655900
O           5.83876800      7.14216300     12.42600900
O           8.33395100      7.04526400     13.12055000
H           8.66767500      7.78249200     12.42631700
O           6.81463500      5.12575200     13.54611900
H           7.69356500      4.58548200     13.59499800
O           7.48798700      5.58743800     11.19458200
H           7.65851600      6.31511400     10.43927900
O           3.62248200      8.34688700      7.31740700
H           4.56492400      8.05954800      7.28871300
H           3.25305100      8.03224800      6.49969500
O           6.24381800      7.62035000      7.21896300
H           6.82723700      7.44156500      7.99122000
H           6.74647500      8.25754500      6.69332400
O          10.33625500      9.00412500      6.20859500
H          10.26747100      8.82515600      7.18641100
H          10.95977800      9.72284400      6.16399700
O           7.71166700      9.58600500      5.83298800
H           8.66827000      9.39293600      5.98861200
H           7.59875100      9.45735700      4.89631000
          46
 Energy =  -1866.13004280 a.u.  #Cluster:    6
C           3.54275900      7.87496200     10.52926800
H           3.47677700      7.51572200      9.48021200
H           2.53152100      7.89159000     10.95410300
H           4.13800800      7.11641200     11.08997400
C           5.54641100      9.15378900      9.89764600
H           5.37699300      9.16686400      8.79510000
H           5.99897000      8.14363400     10.11155600
C           4.33078000      9.63009500     12.03438100
H           5.13636700      9.03871400     12.53990700
H           4.59112000     10.69270800     12.13847500
H           3.40430000      9.43541000     12.59480100
C           3.32039200     10.22071400      9.88774400
H           2.34532600     10.32654200     10.38643900
H           3.80060400     11.21072300      9.83835800
H           3.12750300      9.89368400      8.84257900
C           6.51990100     10.26706200     10.29884400
H           6.81656700     10.16619900     11.36968900
H           6.04271900     11.26064300     10.20316100
C           7.76553200     10.21970600      9.41945700
H           8.35455100     11.14653200      9.53775500
H           7.50192500     10.18153000      8.34449400
N           4.19743900      9.22704100     10.59590200
S           8.84120600      8.81159000      9.80757700
O           9.09499500      8.88082100     11.25887600
O           7.99217600      7.62509500      9.44622800
O          10.00959600      8.99465000      8.93079200
P           7.05112900      6.33627800     12.57382000
O           5.81616300      7.11816100     12.41726100
O           8.28690500      7.09421300     13.20094400
H           8.64178900      7.81340100     12.49946900
O           6.80124400      5.14455700     13.60386400
H           7.69177600      4.62941800     13.69471600
O           7.54648300      5.58688000     11.26996300
H           7.71376700      6.30632000     10.50677400
O           3.69315100      8.00735700      7.45674400
H           4.65784200      7.79713300      7.38789300
H           3.30432900      7.58566800      6.69813400
O           6.33406400      7.48261500      7.25896300
H           6.91667900      7.34973800      8.04254000
H           6.79599600      8.15572500      6.74097500
O          10.33241300      9.05124400      6.27482100
H          10.27955000      8.86544100      7.25269000
H          10.93658100      9.78573500      6.22636400
O           7.69058900      9.54415300      5.89825900
H           8.65358600      9.38279800      6.05206000
H           7.58153200      9.42075000      4.96045000
          46
 Energy =  -1866.12961710 a.u.  #Cluster:    7
C           3.53207800      7.79664400     10.46847600
H           3.54676300      7.58431500      9.37788100
H           2.49689400      7.70722900     10.82212900
H           4.13739800      7.00279800     10.95938000
C           5.48854300      9.24155700     10.13667000
H           5.37874100      9.37523500      9.03481600
H           5.98584700      8.23627500     10.26017700
C           4.13699100      9.36941400     12.23921100
H           4.93586700      8.74561400     12.71171400
H           4.35103700     10.41651600     12.49783300
H           3.18641500      9.07744200     12.70993700
C           3.20902900     10.19585200     10.13453700
H           2.20383800     10.18442800     10.58072900
H           3.63366500     11.20551800     10.24484800
H           3.09069400     10.00478200      9.04227400
C           6.37532600     10.34384400     10.72462800
H           6.69842900     10.07534700     11.75866200
H           5.81850200     11.29546100     10.81499900
C           7.60285700     10.56198200      9.84525200
H           8.14222200     11.47368400     10.16177500
H           7.32229000     10.73778700      8.79306700
N           4.10188200      9.15984000     10.75478200
S           8.77461400      9.17627200      9.91224100
O           9.18339000      9.06487800     11.32338800
O           7.95164500      7.99628800      9.47587100
O           9.82215000      9.53777700      8.94559900
P           7.28565300      6.31636200     12.48490100
O           6.00278700      7.03032700     12.47101800
O           8.51158100      7.07487300     13.13195700
H           8.81282100      7.86231100     12.48363700
O           7.16056100      5.00776600     13.38799000
H           8.08428900      4.54605900     13.38507200
O           7.75448800      5.74253700     11.08430800
H           7.82568300      6.54572400     10.39619900
O           3.64347700      8.64722200      7.47872900
H           4.56711200      8.29539000      7.43848100
H           3.26076400      8.41031800      6.64070600
O           6.15683100      7.66310200      7.42551100
H           6.80199600      7.67412700      8.16686700
H           6.70010300      7.81476800      6.63907400
O          10.25625100      9.06765000      6.30738500
H          10.10595200      9.31817800      7.25522500
H          10.92160900      8.38802900      6.35958600
O           7.85392800      8.29769700      5.26961900
H           8.73461300      8.49787800      5.66041600
H           7.68240200      9.03292800      4.69246300
          46
 Energy =  -1866.12953090 a.u.  #Cluster:    8
C           3.63254800      7.79808800     10.86228900
H           3.52031500      7.52889200      9.79101000
H           2.65011800      7.71593200     11.34386500
H           4.30676300      7.03565100     11.31827700
C           5.50827800      9.24626900     10.21972400
H           5.26074300      9.35641800      9.13761200
H           6.01855500      8.24314400     10.29930900
C           4.42543900      9.46057300     12.46762500
H           5.28771700      8.86853700     12.86578700
H           4.64723600     10.52161400     12.64967400
H           3.54681400      9.17549500     13.06541100
C           3.23272600     10.17514800     10.45773300
H           2.29104800     10.17579000     11.02582100
H           3.65227300     11.19273800     10.46654400
H           2.98297300      9.92864800      9.39915700
C           6.46128100     10.36019600     10.66399300
H           6.87785000     10.14168000     11.67573100
H           5.92739500     11.32495800     10.75373400
C           7.60310900     10.50689600      9.66257200
H           8.17358100     11.43137300      9.86598300
H           7.22608300     10.61541600      8.63099400
N           4.21158100      9.17901800     11.01030400
S           8.76691600      9.11398600      9.71276700
O           9.26624800      9.05866200     11.09799900
O           7.90880600      7.92453400      9.38352700
O           9.74872100      9.42723100      8.66235500
P           7.43716800      6.35360900     12.47321700
O           6.14659500      7.05600300     12.50181200
O           8.68307400      7.15261000     13.02696700
H           8.95528200      7.90296200     12.32438500
O           7.37407500      5.08233700     13.43377500
H           8.30148400      4.62897300     13.39997700
O           7.83835500      5.73148500     11.07351800
H           7.85413800      6.50935000     10.35074200
O           3.39257100      8.50823500      7.83903100
H           4.31481200      8.17872800      7.70392500
H           2.94579300      8.30712400      7.02358400
O           5.92557400      7.60239300      7.51292200
H           6.62992300      7.60045300      8.19802100
H           6.39387400      7.84064200      6.69837300
O           9.98904500      8.71212600      6.06872500
H           9.94102200      8.85240100      7.05118200
H          10.43808500      9.49051900      5.75648200
O           7.41473000      8.29698300      5.25364400
H           7.53404800      7.52062100      4.71285300
H           8.32524700      8.50558000      5.56708600
          46
 Energy =  -1866.12912420 a.u.  #Cluster:    9
C           3.53588500      7.83723500     10.26446400
H           3.63187900      7.68099100      9.16943000
H           2.47785600      7.74067700     10.53905200
H           4.10189400      7.01254400     10.75396400
C           5.49892000      9.28742600     10.08998700
H           5.41767900      9.49177800      8.99486600
H           5.98210700      8.26964500     10.16484600
C           4.09090700      9.28240800     12.15904200
H           4.87279000      8.62245400     12.60976200
H           4.30494400     10.30758200     12.49454400
H           3.12552000      8.96688200     12.58182800
C           3.22387800     10.25806600     10.09501800
H           2.20873100     10.22466100     10.51584000
H           3.65284200     11.25471800     10.28167500
H           3.13280600     10.14588100      8.98862900
C           6.38394500     10.33842700     10.76548200
H           6.69214000      9.99612000     11.78143900
H           5.83281900     11.28579900     10.91561800
C           7.62253500     10.60736500      9.91527800
H           8.17879600     11.47425800     10.31695500
H           7.35025600     10.88622100      8.88303200
N           4.09608500      9.17686100     10.66351200
S           8.76738600      9.19894200      9.85544100
O           9.23385700      9.00487500     11.23826000
O           7.91020500      8.05348700      9.39293000
O           9.77193700      9.59304000      8.85394500
P           7.25276800      6.24283900     12.30106600
O           5.96085900      6.94015400     12.28677700
O           8.45279500      6.99550300     13.00346600
H           8.79612200      7.77466800     12.36965000
O           7.12778400      4.90263200     13.15602000
H           8.05917000      4.45666900     13.16204200
O           7.76095500      5.72862100     10.89158200
H           7.81473900      6.55825300     10.23278700
O           3.94366600      9.22541600      7.29296600
H           4.71727300      8.60483800      7.32876000
H           3.77147200      9.34193800      6.36557400
O           6.04137600      7.57227300      7.44921300
H           6.70448700      7.66507500      8.17159000
H           6.58797700      7.64200500      6.64727700
O          10.15151300      8.75945900      6.30311300
H          10.04609100      8.95642700      7.27080600
H          10.54569200      9.55157800      5.95578100
O           7.76198900      7.88814700      5.28049400
H           8.03435100      7.03956700      4.93990900
H           8.59033100      8.26561600      5.65631100
          46
 Energy =  -1866.12304370 a.u.  #Cluster:   10
C           3.40666400      7.79189000     10.16695800
H           3.33137500      7.92981400      9.06620500
H           2.39885300      7.61196300     10.56254200
H           4.02234100      6.88131000     10.32700200
C           5.45396300      9.12121100     10.23795700
H           5.35743700      9.33956800      9.14831200
H           5.94082200      8.10635800     10.30572900
C           4.07891200      8.75801700     12.30034300
H           4.41044700      7.71741000     12.53657500
H           4.80775100      9.41634200     12.80683700
H           3.08978100      8.90325500     12.75263600
C           3.24487700     10.20954300     10.50894500
H           2.19756800     10.09492500     10.82713900
H           3.66511700     11.09944900     11.00438400
H           3.23882600     10.40684900      9.41465100
C           6.34212900     10.17692500     10.90430000
H           6.73210400      9.80531600     11.88188600
H           5.76770900     11.09200900     11.14096000
C           7.50820900     10.54258800      9.98910000
H           8.09061600     11.37055200     10.43544100
H           7.14854500     10.92727400      9.01877500
N           4.05521900      8.98569500     10.81875100
S           8.66273300      9.17654200      9.67088900
O           9.42350500      8.97963000     10.91588000
O           7.77215300      8.00381100      9.36315500
O           9.42948700      9.62119900      8.49505900
P           7.53906300      6.51572500     12.54519600
O           6.45223400      7.47231600     12.78639900
O           9.01227600      7.01135100     12.82256200
H           9.23516600      7.80153700     12.14122600
O           7.38730500      5.25889700     13.51540100
H           8.17942100      4.62581300     13.32172400
O           7.52178800      5.84745100     11.10470300
H           7.65251100      6.60242000     10.37648500
O           3.74438200      9.24957100      7.36930100
H           4.50219000      8.61367100      7.39938300
H           3.48772400      9.28246100      6.45530700
O           5.75069100      7.46217700      7.57538200
H           6.48621200      7.58531800      8.22127100
H           6.22354300      7.35706300      6.73259800
O           9.54153100      8.84555700      5.89811400
H           9.46419100      9.20196100      6.82219500
H          10.34822900      8.34025000      5.92450900
O           7.29044100      7.45711800      5.22577000
H           7.03994400      7.93679700      4.44439700
H           8.12402700      7.89311600      5.51768400
          46
 Energy =  -1866.09904510 a.u.  #Cluster:   11
C           3.50319300      7.90270700     10.76044200
H           3.34844100      7.57042400      9.71026400
H           2.53064500      7.91512800     11.26781000
H           4.14266800      7.13493000     11.26755400
C           5.52687100      9.12722300     10.08459200
H           5.33544500      8.90113700      9.00126600
H           6.03983700      8.19974400     10.48634700
C           4.37779800      9.65151600     12.24791100
H           5.06257700      8.91245800     12.75420200
H           4.83219800     10.64549000     12.35313500
H           3.43096500      9.63589700     12.80624500
C           3.31779700     10.26939700     10.09555700
H           2.33782700     10.38080500     10.58232000
H           3.80108400     11.25771500     10.05265800
H           3.13238500      9.94469900      9.04138100
C           6.45170900     10.33942200     10.22658500
H           6.82157300     10.42236800     11.27487100
H           5.90403400     11.28074100     10.01368200
C           7.63837900     10.23423900      9.27761000
H           8.21509800     11.18154700      9.28996800
H           7.29503600     10.16729500      8.21299800
N           4.18665300      9.25487300     10.80343200
S           8.68669300      8.86673900      9.67178200
O           9.03265200      8.96151000     11.10802500
O           7.83305900      7.62113900      9.44726700
O           9.81270300      8.90909200      8.72515800
P           7.22960200      6.46159100     12.50320900
O           5.95427400      7.20344700     12.29660600
O           8.46729000      7.31379900     13.10931600
H           8.91621700      8.03123100     12.47761800
O           7.10013600      5.25735000     13.60421900
H           7.94743100      4.78028700     13.82733300
O           7.82003300      5.70639900     11.20370000
H           7.89154000      6.27975000     10.29850500
O           3.62440100      8.34388200      7.76745900
H           4.60595500      8.10678800      7.68709200
H           3.21410700      7.94765900      7.00680000
O           6.11426000      7.51292300      7.36254700
H           6.69435700      7.23628700      8.11592500
H           6.67243000      8.11791300      6.82070600
O          10.22735300      8.73038800      6.39523700
H          10.56425500      9.44816200      6.97761000
H          10.18238600      7.97154200      7.02411800
O           7.70549000      9.42741200      6.29568700
H           7.56204200      9.64090100      5.38224300
H           8.68913400      9.12406500      6.35103300
          46
 Energy =  -1866.09220150 a.u.  #Cluster:   12
C           3.48076400      8.04206300     10.68038700
H           3.29908100      7.89499200      9.59306100
H           2.51902800      7.99323100     11.20575200
H           4.10763100      7.18363300     11.03540000
C           5.50598200      9.32350000     10.13786000
H           5.24604900      9.34611500      9.04500400
H           5.99385900      8.31827900     10.31199500
C           4.46388900      9.48320500     12.41379400
H           5.15060100      8.65529000     12.75181100
H           4.94704900     10.43527400     12.67078900
H           3.54068500      9.38625800     13.00284400
C           3.33780900     10.49056700     10.44820200
H           2.37698100     10.53155300     10.98229000
H           3.84269600     11.46207800     10.56532400
H           3.11398300     10.36122500      9.36089200
C           6.49939900     10.44255500     10.46450500
H           6.93409800     10.29437900     11.48056300
H           5.99482300     11.42981200     10.48125200
C           7.61648000     10.47194600      9.42639300
H           8.19383600     11.41381800      9.51496700
H           7.18473600     10.51775300      8.39475800
N           4.20439800      9.34996200     10.93311200
S           8.68170500      9.06836600      9.57014800
O           8.98756900      8.87737500     11.00311900
O           7.84645100      7.87232100      9.08088100
O           9.81907800      9.28491400      8.67033600
P           7.21876300      6.22933900     11.98513000
O           5.96899100      7.03897900     11.94608100
O           8.49866700      6.90824300     12.71400700
H           8.95145400      7.72153000     12.22785600
O           7.06308600      4.84597100     12.84423700
H           7.89534600      4.30644500     12.95566300
O           7.75777800      5.71638000     10.55243600
H           7.82000800      6.44475000      9.76580200
O           3.54012100      8.95050500      7.75534700
H           4.49458900      8.85740300      7.44596300
H           3.00692300      8.78746800      6.98699100
O           6.16552600      8.84380900      7.21655600
H           6.61729100      8.18432900      7.82211400
H           6.54733200      8.61374500      6.33521300
O          10.37782300      8.64994000      6.39977200
H          10.13162100      9.53459100      6.72232500
H          10.72617100      8.21974100      7.20319400
O           7.99548900      7.47277600      6.33257400
H           8.16891400      7.17605900      7.24341600
H           8.85545400      7.86755000      6.02990200
