%nproc=24
%mem=50GB
#p M062X/6-311+G(2d,p) nosymm em=GD3 counterpoise=3

Title Card Required

0 1
P           8.59552100     15.97870700      4.52291300       1
O           7.46624400     16.83588800      4.14443000       1
O           8.88148000     16.08257400      6.08444900       1
H           9.70111200     15.49494000      6.29624400       1
O           8.45092700     14.43550200      4.19967200       1
H           7.43063600     14.16051400      4.27459700       1
O          10.02143300     16.31472100      3.90727700       1
H           9.92640900     16.40717000      2.86962500       1
O           9.64810800     16.75065400      1.10573700       2
H           8.99144000     17.46703700      1.20730700       2
H           9.15297700     16.02305500      0.73097700       2
O           7.68330200     18.59730100      1.78910100       3
H           7.44112900     18.04442800      2.55279000       3
H           8.10762200     19.36038200      2.18212400       3




