%nproc=24
%mem=50GB
#p M062X/6-311+G(2d,p) nosymm em=GD3 counterpoise=5

Title Card Required

0 1    
P          12.74805100      8.79265000      8.23733100         1
O          12.56457800      9.92172700      9.16070900         1
O          14.17187100      8.12023800      8.45264400         1
H          14.24093000      7.33644900      7.77940200         1
O          11.72711800      7.59615300      8.46561300         1
H          10.82158300      7.82883500      7.97303900         1
O          12.70254800      9.14064900      6.69383200         1
H          11.73977200      9.55435100      6.47837800         1
O           7.45827700      7.41433600      8.90019200         2
H           8.15869400      7.84122100      8.31746700         2
H           7.38358900      6.53230400      8.55684800         2
O           7.60697400      7.81189600     11.64656500         3
H           7.05606200      7.13165900     12.01807800         3
H           7.56938500      7.66199400     10.67788500         3 
O          10.21534300     14.22796900      9.24931000         4
H          10.69570700     13.63467400      8.63384800         4
H          10.26290400     15.08871000      8.84871400         4 
O          11.50995200     12.46849100      7.61863200         5
H          12.16919400     11.91049800      8.04322200         5
H          10.99325900     11.83122900      7.08058900         5 


