%mem=50GB
%nprocshared=24
#p opt freq b3lyp/6-311+g(2d,p) scrf=(smd,solvent=water) em=gd3bj

Title Card Required

0 1
 C                 -2.47588300    0.05293100    1.16902000
 C                 -1.58352500    1.07264000    1.11554500
 C                 -1.71824000    0.18479500   -0.89579000
 N                 -2.55028700   -0.48538500   -0.10215900
 H                 -3.06139700   -0.33458200    1.98419300
 H                 -1.24006200    1.74825500    1.87845500
 H                 -1.55628700   -0.01231800   -1.94045200
 C                 -3.36984900   -1.62975800   -0.49592500
 H                 -3.27028200   -1.77849800   -1.56811100
 H                 -3.02803400   -2.51788700    0.03285900
 H                 -4.41009400   -1.42985600   -0.24633300
 N                 -1.12652600    1.14318000   -0.18624200
 C                 -0.12598500    2.09146700   -0.69892000
 H                 -0.54561000    3.08919900   -0.57335400
 H                 -0.02353900    1.89761400   -1.76565500
 C                  1.22398200    2.01968700    0.01087300
 H                  1.72556500    2.96640800   -0.20589600
 H                  1.07908800    1.99139600    1.09229200
 C                  2.18836800    0.91903400   -0.42028000
 H                  3.16699000    1.10542400    0.02281900
 H                  2.30493500    0.88159400   -1.50452800
 S                  1.79097800   -0.77667300    0.08451500
 O                  3.06714800   -1.52249700   -0.05257500
 O                  1.32077000   -0.70281100    1.48895000
 O                  0.75052700   -1.28085700   -0.84223300

