%nproc=24
%mem=50GB
#p M062X/6-311+G(2d,p) nosymm em=GD3 counterpoise=4

Title Card Required

0 1
O          12.71764000     12.87933100      8.87882500       1
H          12.04525800     13.16590500      9.51046900       1
H          12.20992700     12.42041300      8.17834500       1
O           6.99193000     12.91230100      9.49760300       2
H           7.19313600     13.32850300     10.34344800       2
H           7.85363400     12.54190800      9.23185000       2 
O          10.58533400     13.09786500     10.95596100       3
H          11.09302800     12.41998300     11.42137300       3
H          10.12283600     12.56715100     10.25020900       3
O           8.15789000     13.52611700     12.07271900       4
H           8.13764800     14.41870400     12.40106500       4
H           9.06952400     13.40995300     11.71002800       4     


