          36
 Energy =     -0.50771200 a.u.  #Cluster:    1
C          12.75910300     10.86180800      9.60715100
C          12.87403000     10.00560200     10.69411000
C          11.20685900      9.24390400      9.38183400
N          11.73125600     10.36652400      8.80214900
H          13.28114400     11.78036200      9.38457700
H          13.52363800     10.06183400     11.54575100
H          10.35858800      8.66610700      9.00676400
C          11.21304400     11.01299400      7.61027500
H          10.29235700     10.51177800      7.24332500
H          10.91536500     12.06715400      7.84240300
H          11.96640000     11.03008300      6.80683400
N          11.90897500      9.00424500     10.53787200
C          11.55722100      7.99077300     11.53598600
H          12.42182100      7.29583800     11.64468000
H          10.69208200      7.39278700     11.15130300
C          11.19628000      8.60089100     12.91035600
H          11.45995200      7.86250800     13.69590700
H          11.83855300      9.48808000     13.11625900
C           9.72606100      8.98282900     13.05761500
H           9.52642900      9.35801400     14.07744300
H           9.06617400      8.10878900     12.92440400
S           9.26590100     10.25513600     11.85729300
O           7.96092800     10.82475900     12.20670300
O          10.41312400     11.18304400     11.85413800
O           9.20232000      9.45368400     10.57655300
P           7.46773200     11.83567000      8.66428800
O           8.55228100     12.81449400      8.64591400
O           6.47789700     11.82037000      9.90411900
H           6.98435300     11.53557000     10.77550100
O           6.46442600     12.10472600      7.45277700
H           5.70672700     11.41012300      7.51731600
O           7.91588100     10.33463200      8.39657100
H           8.36053700      9.93014000      9.27035800
O          11.31464300     13.07527400     10.03252400
H          11.08170500     12.47935400     10.77606500
H          10.45623600     13.27013700      9.65289400
          36
 Energy =     -0.50736200 a.u.  #Cluster:    2
C          12.77237900     10.61012300      9.47118700
C          12.86614500      9.99694100     10.71399800
C          11.09586100      9.11380400      9.63397200
N          11.68448000     10.03672200      8.81283000
H          13.34585800     11.41990200      9.04885900
H          13.55404500     10.17578700     11.51704600
H          10.18414600      8.54904100      9.41438500
C          11.16828300     10.44717100      7.51943200
H          11.26317900      9.63956000      6.77609300
H          10.09145000     10.73790600      7.60082300
H          11.69328500     11.35344200      7.15412600
N          11.82195100      9.07020300     10.79812300
C          11.44238000      8.32587700     12.00153100
H          12.26282900      7.61173100     12.24324200
H          10.52654700      7.72035300     11.77787200
C          11.17438100      9.25359900     13.20917000
H          11.44516000      8.70547200     14.13527500
H          11.85973800     10.13168700     13.17797900
C           9.73052400      9.73290600     13.31521300
H           9.59812700     10.35936800     14.21586300
H           9.03193700      8.88697000     13.43381100
S           9.24519000     10.68886900     11.85762200
O           7.98474400     11.38343200     12.14415600
O          10.41655100     11.53687400     11.55827900
O           9.07872600      9.60807100     10.81692600
P           7.07019400     11.46717800      8.61171300
O           8.22561100     12.25684200      8.18770700
O           6.27483100     11.93495100      9.90155000
H           6.86997800     11.80768400     10.75733300
O           5.93327200     11.51210600      7.49228100
H           5.12859500     10.97531600      7.84645100
O           7.32918700      9.90695200      8.76124800
H           7.97314900      9.73236600      9.58141300
O          11.15794100     12.72822700      9.15333900
H          10.98929200     12.41315900     10.06757600
H          10.27006800     12.84943000      8.81159300
          36
 Energy =     -0.50722500 a.u.  #Cluster:    3
C          13.37471700     10.52812400      9.64450900
C          13.30404800      9.59089600     10.66697800
C          11.32715800      9.59397300      9.58543300
N          12.14566700     10.50727600      8.98331300
H          14.17166700     11.19386100      9.36932100
H          14.03544700      9.31678700     11.40142800
H          10.27405400      9.37092100      9.30694100
C          11.76228500     11.38375200      7.89228400
H          12.05777600     12.43791500      8.11712600
H          12.21949800     11.06467000      6.94267700
H          10.65293300     11.41675900      7.77406700
N          12.03380300      9.00924300     10.60712000
C          11.48615700      8.08800800     11.60584900
H          12.22773200      7.27572200     11.77820100
H          10.56522900      7.60139800     11.18780400
C          11.16294900      8.80962500     12.93573800
H          11.45140300      8.14722800     13.77694600
H          11.80707900      9.71366300     13.03943100
C           9.69655500      9.20361300     13.08850000
H           9.53650700      9.72065700     14.05206900
H           9.04417700      8.31293000     13.11640100
S           9.15728000     10.27846700     11.73957200
O           7.96756500     11.02476700     12.15392500
O          10.36085100     11.07639500     11.39970200
O           8.89097800      9.29900400     10.62443900
P           7.10021700     11.54065800      8.62700100
O           8.36742800     12.20031800      8.31656900
O           6.33877600     11.99883200      9.94414500
H           6.88510400     11.71732400     10.79008300
O           6.01889900     11.86420900      7.49931600
H           5.13521400     11.41350400      7.77861500
O           7.11079000      9.95429300      8.63700000
H           7.76240000      9.61469200      9.39654300
O          10.88816000     13.25930500      9.74445500
H          10.78664900     12.57357100     10.43430500
H          10.01286400     13.28765600      9.35221200
          36
 Energy =     -0.50584700 a.u.  #Cluster:    4
C          13.64677700      9.33730100      9.56254200
C          13.26728300      8.75519500     10.76549400
C          11.41217400      9.55574700      9.76522400
N          12.48417600      9.81479200      8.95666600
H          14.62114600      9.44163000      9.12319300
H          13.86577700      8.27829600     11.51783600
H          10.34304600      9.85441100      9.58393400
C          12.43679900     10.53697200      7.69736400
H          12.70084600     11.61136900      7.85872800
H          13.12133600     10.09489200      6.95696800
H          11.40313200     10.54727200      7.28455800
N          11.88114300      8.89021400     10.86951200
C          11.07700500      8.40198200     11.99422400
H          11.51256100      7.44312500     12.35096000
H          10.04260300      8.16224100     11.61208100
C          11.01110800      9.43132100     13.14401300
H          11.35352400      8.95073600     14.08207900
H          11.73807800     10.25815400     12.96606300
C           9.61398500     10.00908800     13.35218700
H           9.59877200     10.66935600     14.23793800
H           8.87490000      9.21688800     13.55793400
S           9.08773900     10.95596200     11.90378100
O           7.79245500     11.57476900     12.19367000
O          10.22260800     11.85596900     11.61216600
O           9.00138400      9.88498600     10.83826700
P           6.84053600     11.56022400      8.63965100
O           7.97752600     12.34894600      8.17234600
O           6.05671800     12.07986900      9.92121900
H           6.64636100     11.96305300     10.77603100
O           5.68269800     11.55401600      7.54051000
H           4.88070400     11.04306600      7.93534000
O           7.08812200     10.00773500      8.86788800
H           7.81134300      9.88108300      9.62390100
O          10.93377700     12.24187900      9.00929900
H          10.79424700     12.25607000      9.98301000
H          10.05762300     12.43141000      8.66343300
          36
 Energy =     -0.50399700 a.u.  #Cluster:    5
C          13.70772000      9.22070100      9.60956100
C          13.30282200      8.68766400     10.82657100
C          11.47773400      9.50418400      9.78411700
N          12.56301600      9.70872800      8.97778700
H          14.68814400      9.28628900      9.17620200
H          13.88201600      8.22012700     11.59969900
H          10.41809400      9.82700900      9.58630900
C          12.54788800     10.37190300      7.68557200
H          11.50350000     10.51710100      7.32502600
H          12.98342500     11.39438200      7.76735000
H          13.11083900      9.79192200      6.93617000
N          11.91964100      8.86133500     10.91299900
C          11.09158100      8.41459300     12.03781600
H          11.50496200      7.45671300     12.42249500
H          10.05861800      8.18388800     11.64608400
C          11.02637300      9.47004300     13.16343000
H          11.35641800      9.00792600     14.11501100
H          11.76256900     10.28602400     12.97325600
C           9.63245800     10.06456400     13.34609700
H           9.61331700     10.73813800     14.22165700
H           8.88266200      9.28332900     13.55377400
S           9.13754100     10.99613700     11.87666400
O           7.83680800     11.61974100     12.12901600
O          10.28003100     11.89088300     11.60235300
O           9.07078200      9.91134400     10.82283300
P           6.99703600     11.57656300      8.54160700
O           8.15431800     12.35335000      8.10529500
O           6.17473700     12.11233800      9.79220900
H           6.73641300     12.00292100     10.66634800
O           5.87585600     11.56728700      7.40520400
H           5.05882200     11.06326900      7.77733500
O           7.22762300     10.02489500      8.79221400
H           7.92096400      9.90214200      9.57699000
O          11.09014100     12.18246300      9.01931900
H          10.92528200     12.22579400      9.98811600
H          10.22986300     12.39432400      8.64753600
