%nproc=24
%mem=50GB
#p M062X/6-311+G(2d,p) nosymm em=GD3 counterpoise=3

Title Card Required

0 1
P           7.88615200      7.63346300     11.74565800     1
O           7.02681300      8.79916900     11.45869100     1
O           8.92218600      7.26108800     10.62488500     1
H           8.36804700      6.94915200      9.73996200     1
O           8.78580500      7.95594600     13.02304800     1
H           9.37178300      7.12392000     13.19890500     1
O           7.10009600      6.32910600     12.16511900     1
H           6.50840400      6.00293700     11.33011200     1
O           3.66058600      7.04163700     11.40331300     2
H           3.95639900      6.95434500     12.30633400     2
H           4.26540800      6.43870000     10.90927300     2
O           6.63877700     11.62983700     11.79931100     3
H           6.86326900     10.68510200     11.76940900     3
H           7.23773800     11.99402000     12.44641200     3

