          33
 G =       -0.415667 Gcorr = 0.181584 a.u. Nimag =   0 Frame:     1 Step:     1 Geom:     1
C          16.78709700     18.67440200     15.96449900
C          15.87743400     18.31012600     16.95028000
C          15.41610300     17.10271000     15.10763900
N          16.47316100     17.92840100     14.82739600
H          17.62326400     19.34604900     16.01106600
H          15.81386000     18.62506300     17.97408700
H          14.98410300     16.34068500     14.42576700
C          17.28875400     17.84537500     13.62885700
H          17.12763300     18.71992500     12.97660700
H          18.36622600     17.77648500     13.89714900
H          17.06503900     16.91397700     13.06295500
N          15.03012300     17.34407300     16.39751600
C          14.07183300     16.55817500     17.18162900
H          13.70148000     17.18752700     18.02105100
H          14.64306800     15.70833400     17.66144600
C          12.89230800     16.03401100     16.34073000
H          11.95550100     16.51302100     16.69447600
H          12.97929500     16.35457700     15.28153600
C          12.73717000     14.52089700     16.41342800
H          11.83551900     14.20475000     15.85759200
H          12.57017400     14.18870000     17.45345700
S          14.15613600     13.58544600     15.75170200
O          13.59834300     12.38217200     15.16017200
O          14.81906100     14.53844400     14.79224000
O          15.03521300     13.40902300     16.94423100
P          18.01074100     15.15637300     16.37617300
O          17.63130500     16.41725700     17.01992400
O          19.59714600     15.10399600     16.19231800
H          19.83266800     14.18422100     15.79052300
O          17.67785400     13.79821000     17.09426700
H          16.60272600     13.63490600     17.08651200
O          17.50910100     15.05905000     14.86253800
H          16.50058600     14.75366700     14.82026600
          33
 G =       -0.416617 Gcorr = 0.182256 a.u. Nimag =   0 Frame:     2 Step:     2 Geom:     2
C          16.19578400     18.44709700     14.97897000
C          14.85394400     18.14412800     15.18142700
C          16.02867200     17.24491400     16.88040700
N          16.90222300     17.90461300     16.05350500
H          16.67461500     18.94178500     14.15351900
H          14.00238300     18.35301500     14.56344100
H          16.28768600     16.64449500     17.76478600
C          18.34911700     17.87730900     16.17499500
H          18.82372900     17.71440200     15.18226100
H          18.72584500     18.81992800     16.60739100
H          18.67960900     17.02302100     16.80559100
N          14.77188400     17.41166700     16.36753100
C          13.54742900     16.83347100     16.92317300
H          12.76309800     17.62254100     16.94741600
H          13.74279300     16.53854700     17.98511100
C          13.07070200     15.61591500     16.10132600
H          12.07954700     15.83827000     15.65933200
H          13.73383400     15.45565000     15.21784400
C          12.98956700     14.35101500     16.94165100
H          12.39645800     13.58039500     16.41287700
H          12.45939300     14.52470100     17.89160600
S          14.61825000     13.61964900     17.29795600
O          14.44188100     12.87325200     18.53415200
O          14.95317500     12.83853600     16.07990300
O          15.53733700     14.81536600     17.41449500
P          16.90778700     14.99832700     14.15944600
O          15.98684900     16.08953400     13.82816100
O          18.21901900     15.11648700     13.24986900
H          18.79110100     14.27732300     13.41781100
O          17.52702900     15.11831400     15.62467900
H          16.77434100     14.91550200     16.35264400
O          16.43578800     13.51433400     13.94425800
H          15.82915900     13.20651900     14.79248900
          33
 G =       -0.408047 Gcorr = 0.181541 a.u. Nimag =   0 Frame:     3 Step:     3 Geom:     3
C          15.33291800     18.78713400     14.75325100
C          14.36131500     18.66073000     15.73442600
C          15.94334000     17.09319400     16.11145700
N          16.30557000     17.81475800     15.00722900
H          15.39322200     19.46887500     13.92684400
H          13.45686600     19.21696400     15.88637500
H          16.50839400     16.27688500     16.58735100
C          17.46274100     17.56373400     14.16733100
H          17.31104000     16.63161900     13.56969300
H          17.64745500     18.39806400     13.47379600
H          18.37874700     17.40633200     14.78067600
N          14.76316300     17.62074400     16.57906800
C          13.92277300     17.00903400     17.60945700
H          13.55462700     17.80589000     18.29244200
H          14.55174000     16.31660600     18.23168500
C          12.74417300     16.24775700     16.96264200
H          11.79963800     16.56055800     17.45174400
H          12.63126600     16.55023700     15.89667100
C          12.88634000     14.73842300     17.05303300
H          11.99814800     14.24593700     16.61289600
H          12.91129800     14.40096600     18.10514200
S          14.36019400     14.06984500     16.22052800
O          13.93413500     12.81873600     15.61852200
O          14.84777300     15.12522700     15.26890000
O          15.37167800     13.98154300     17.32466200
P          18.41446400     14.12727400     15.65400800
O          18.75603900     15.43997400     16.20795900
O          19.70355400     13.40625900     15.05613900
H          19.39527400     12.49460100     14.68015800
O          17.80368100     13.04962100     16.62223800
H          16.86137800     13.41298300     17.01394400
O          17.47835200     14.23209400     14.36017800
H          16.51872700     14.52743300     14.61958000
          33
 G =       -0.415668 Gcorr = 0.181583 a.u. Nimag =   0 Frame:     4 Step:     4 Geom:     4
C          16.73748200     18.60726600     15.68951600
C          15.84996000     18.34142100     16.72564100
C          15.35350500     16.95723100     15.02164400
N          16.40184500     17.75218900     14.63864500
H          17.57242000     19.28097700     15.65159900
H          15.80703000     18.75606300     17.71439900
H          14.90927300     16.13127000     14.42771200
C          17.19262500     17.55132800     13.43741600
H          17.01896200     18.35920600     12.70707100
H          18.27538100     17.50575000     13.68923800
H          16.95666800     16.57026200     12.96896200
N          14.99412000     17.32460700     16.28927900
C          14.05454700     16.61960300     17.16734200
H          13.70008300     17.32875400     17.94794600
H          14.63790700     15.82173900     17.71672900
C          12.85910600     16.01409800     16.40741300
H          11.92856600     16.52479200     16.73221100
H          12.92280000     16.22896500     15.32021500
C          12.70984300     14.51535400     16.63178200
H          11.79770700     14.14542200     16.12883100
H          12.56560000     14.28695100     17.70276400
S          14.11727500     13.52017500     16.03570700
O          13.55042700     12.26403600     15.57752500
O          14.75745800     14.37415500     14.97313800
O          15.02145300     13.46287600     17.22103800
P          17.98007800     15.14849600     16.42171400
O          17.61083800     16.46624400     16.94646500
O          19.56240500     15.07892000     16.21051600
H          19.79141300     14.12507100     15.89327800
O          17.66578800     13.86715900     17.27650900
H          16.59148200     13.70313700     17.30708500
O          17.44697200     14.90314100     14.93576200
H          16.43900900     14.59336800     14.94492300
          33
 G =       -0.408049 Gcorr = 0.181538 a.u. Nimag =   0 Frame:     5 Step:     5 Geom:     5
C          15.28102400     18.65789500     14.60649900
C          14.35343100     18.59397500     15.63518300
C          15.93343300     17.02643700     16.02052900
N          16.25332300     17.68659900     14.86595600
H          15.31149300     19.29631900     13.74461500
H          13.46290600     19.16906000     15.79880900
H          16.51008300     16.22728000     16.51133200
C          17.36865300     17.37840700     13.98928400
H          17.53142200     18.17456600     13.24709600
H          18.30943100     17.23928100     14.56861200
H          17.17975600     16.41982900     13.44661400
N          14.78150100     17.59249700     16.51280300
C          13.98227400     17.04501400     17.60988200
H          13.65446700     17.88019500     18.26711300
H          14.63124000     16.37659600     18.23777700
C          12.76711500     16.26779100     17.05636900
H          11.84920500     16.61800700     17.57019900
H          12.60963700     16.51692900     15.98230600
C          12.89627000     14.76324900     17.21820300
H          11.98333600     14.26104000     16.84471200
H          12.96565100     14.47970600     18.28415500
S          14.32283100     14.03305500     16.35552300
O          13.85499400     12.75967700     15.83701200
O          14.77924300     15.03261300     15.33079900
O          15.38221100     13.98571700     17.41627000
P          18.34622900     14.00745100     15.60296200
O          18.72809000     15.34104900     16.07468800
O          19.59802200     13.24025600     14.98373100
H          19.26182500     12.31650600     14.66579500
O          17.76894200     12.98742000     16.65091300
H          16.85021300     13.38257900     17.06697200
O          17.35257600     14.06102900     14.34975200
H          16.40920100     14.38200400     14.63756600
          33
 G =       -0.416623 Gcorr = 0.182250 a.u. Nimag =   0 Frame:     6 Step:     6 Geom:     6
C          16.23882400     18.39250900     14.76500600
C          14.89716400     18.08228800     14.95681600
C          16.03950300     17.34664100     16.75379200
N          16.92449900     17.95269600     15.89847100
H          16.73208500     18.82728400     13.91470900
H          14.05941300     18.22376100     14.30191300
H          16.28396800     16.82543000     17.69093700
C          18.36792900     17.96082300     16.05855600
H          18.87140300     17.72516000     15.09500600
H          18.71841700     18.94229000     16.42083300
H          18.69457800     17.16712300     16.76562000
N          14.79462400     17.44781300     16.19665800
C          13.56509300     16.89445000     16.76608700
H          12.76775000     17.66835800     16.70539500
H          13.73624000     16.69065300     17.85329700
C          13.13053000     15.60546800     16.03476500
H          12.14868800     15.77328600     15.54996200
H          13.82032200     15.38547600     15.18529000
C          13.04580700     14.41213400     16.97362700
H          12.48089000     13.58998700     16.49385700
H          12.48547100     14.65303100     17.89106800
S          14.67508800     13.74280500     17.43367800
O          14.47572100     13.09915100     18.72296900
O          15.05717300     12.86903700     16.29501100
O          15.57137000     14.96078400     17.47405300
P          17.02721400     14.90099000     14.25196200
O          16.09909900     15.94470200     13.80717600
O          18.36095200     14.96661000     13.37009200
H          18.93562400     14.14804200     13.61305600
O          17.60370000     15.15286700     15.71769500
H          16.83473700     14.99505200     16.44030900
O          16.58453400     13.39600300     14.14844300
H          15.96161400     13.14732200     15.00391400
          33
 G =       -0.408057 Gcorr = 0.181527 a.u. Nimag =   0 Frame:     7 Step:     7 Geom:     7
C          15.23507000     18.76692900     14.63081500
C          14.25241700     18.61778200     15.59768800
C          15.89636200     17.13237400     16.03726400
N          16.24584200     17.84567800     14.92352100
H          15.27979700     19.43274000     13.79055800
H          13.32125500     19.13569200     15.72144100
H          16.48919800     16.35357100     16.54121600
C          17.42840400     17.62888600     14.10984300
H          17.58423800     18.45188000     13.39605300
H          18.34006400     17.53381500     14.74218700
H          17.33270600     16.67436000     13.53657300
N          14.68513700     17.61567000     16.47230700
C          13.85366000     16.98752900     17.50017100
H          13.43613300     17.78076600     18.15845200
H          14.50154600     16.33816900     18.14886100
C          12.72408500     16.15924700     16.84835200
H          11.75694800     16.43756800     17.31355500
H          12.61775500     16.43457900     15.77429600
C          12.93383700     14.66022900     16.97284900
H          12.07907400     14.11830700     16.52458000
H          12.95176400     14.34525500     18.03201200
S          14.45448300     14.04448800     16.18495300
O          14.10085400     12.76046900     15.60581100
O          14.90964800     15.09979500     15.21781900
O          15.44681000     14.03036700     17.30988400
P          18.51015800     14.27018400     15.68900600
O          18.77954700     15.61274600     16.21026700
O          19.84285300     13.59383900     15.13618200
H          19.58529300     12.65730200     14.78405400
O          17.93144300     13.19377900     16.67783300
H          16.96527300     13.52385600     17.04156000
O          17.59656700     14.29219900     14.37525100
H          16.62179600     14.55997800     14.60480900
          33
 G =       -0.416630 Gcorr = 0.182244 a.u. Nimag =   0 Frame:     8 Step:     8 Geom:     8
C          16.12598400     18.34431300     14.69124000
C          14.80457800     18.04400900     15.00239700
C          16.09335000     17.33854400     16.71015900
N          16.90419400     17.92377700     15.77092500
H          16.54640300     18.76014600     13.79366100
H          13.91465600     18.17655700     14.41825900
H          16.41504300     16.83485200     17.63348000
C          18.35603500     17.92836800     15.80753100
H          18.73919900     17.14895200     16.50195200
H          18.77498700     17.66889200     14.81021800
H          18.73891700     18.91590400     16.11656500
N          14.80596300     17.43427900     16.25872300
C          13.62769800     16.89808000     16.94173400
H          12.83054900     17.67446000     16.93404200
H          13.89053000     16.71441700     18.01414700
C          13.12833800     15.59723200     16.27569300
H          12.10924600     15.76022500     15.87318200
H          13.74248500     15.35752500     15.37501300
C          13.12059500     14.42276400     17.24173700
H          12.51408300     13.59420300     16.82848500
H          12.64190700     14.68411200     18.19890900
S          14.78140800     13.75477800     17.57348300
O          14.69114800     13.13618200     18.88710000
O          15.06227000     12.85857400     16.42311500
O          15.68130600     14.96948500     17.51429800
P          16.85870700     14.84009500     14.18218300
O          15.89762500     15.87788200     13.79774700
O          18.11318200     14.88522100     13.18962600
H          18.70640200     14.07097500     13.40018900
O          17.55767700     15.11741100     15.58872900
H          16.85148700     14.97815700     16.37652100
O          16.40687200     13.33462800     14.14502000
H          15.85720300     13.10502500     15.05396300
          33
 G =       -0.408955 Gcorr = 0.182194 a.u. Nimag =   0 Frame:     9 Step:     9 Geom:     9
C          15.13896300     18.98007300     14.97789200
C          14.13111300     18.76628700     15.90525600
C          15.79678200     17.30514000     16.33561800
N          16.16685600     18.07618200     15.26840200
H          15.19253500     19.67744200     14.16482800
H          13.18461900     19.25502300     16.02027000
H          16.41496100     16.51256500     16.81152200
C          17.29521800     17.76219400     14.40742000
H          17.05969700     16.83727100     13.81502900
H          17.52053400     18.58436800     13.71457200
H          18.20277900     17.53097200     15.00502000
N          14.55733200     17.73421400     16.75461000
C          13.67533200     16.98555700     17.65557800
H          13.13028200     17.71095900     18.29893400
H          14.30184700     16.35313400     18.33823200
C          12.67271000     16.10857600     16.86397500
H          11.69337900     16.14217600     17.38263300
H          12.49058400     16.56375300     15.86358600
C          13.09332600     14.65104800     16.68936500
H          12.34931800     14.10943500     16.07958800
H          13.12427500     14.12636300     17.66052500
S          14.72151100     14.50547900     15.90685200
O          14.88038600     13.17638600     15.31524000
O          14.79766900     15.65907800     14.98134600
O          15.64377700     14.75099300     17.07877800
P          18.57634900     13.89486900     15.54716100
O          18.51597700     15.24744700     14.99703000
O          20.07796600     13.35332400     15.52628100
H          20.06525800     12.38424600     15.87441000
O          18.15872300     13.72753300     17.06615400
H          17.17235000     14.11441800     17.18806800
O          17.81770600     12.74834300     14.74288600
H          16.78990800     12.83517600     14.88297000
          33
 G =       -0.416628 Gcorr = 0.182246 a.u. Nimag =   0 Frame:    10 Step:    10 Geom:    10
C          16.29917300     18.46341400     14.94159000
C          14.94723500     18.19866600     15.12906800
C          16.07941400     17.24422800     16.82684700
N          16.97964500     17.88723500     16.01550900
H          16.80014200     18.95350000     14.12662200
H          14.10761700     18.44018300     14.50664800
H          16.31243400     16.62613000     17.70624300
C          18.42400800     17.81370900     16.14796500
H          18.82587900     18.73852000     16.59584500
H          18.72292700     16.94135600     16.76943800
H          18.90155400     17.64924200     15.15682300
N          14.83273100     17.45503500     16.30560200
C          13.58667900     16.90682000     16.84339700
H          12.82628100     17.71882600     16.87156900
H          13.76393500     16.59259000     17.90294700
C          13.08060800     15.71483600     16.00193900
H          12.10072900     15.97306500     15.55427300
H          13.74650900     15.54535600     15.12234600
C          12.95321600     14.44257800     16.82524700
H          12.34357700     13.69638500     16.28057400
H          12.41791300     14.62026800     17.77160400
S          14.55572100     13.65920800     17.18954800
O          14.34486200     12.90566900     18.41599800
O          14.87950500     12.88110000     15.96660100
O          15.50893700     14.82564200     17.32756300
P          16.91303100     15.00417100     14.08679300
O          16.03042500     16.12857600     13.76245300
O          18.23464800     15.09147600     13.18867400
H          18.77565300     14.23020000     13.34617600
O          17.52401400     15.08564300     15.55798500
H          16.75940100     14.89925800     16.27762500
O          16.39556300     13.53897300     13.84865100
H          15.77605200     13.23816800     14.68985700
          33
 G =       -0.408048 Gcorr = 0.181539 a.u. Nimag =   0 Frame:    11 Step:    11 Geom:    11
C          15.16335600     18.69227900     14.57499000
C          14.16673300     18.54722300     15.52808400
C          15.83027600     17.10454800     16.03140300
N          16.18590500     17.79766400     14.90700800
H          15.21033800     19.33861100     13.71978200
H          13.22378900     19.04955100     15.62321600
H          16.42814100     16.34850100     16.56346700
C          17.38651400     17.58521800     14.11900300
H          17.31491300     16.62091200     13.55872900
H          17.54470400     18.39966800     13.39588800
H          18.28732700     17.51238300     14.76961400
N          14.60280600     17.57466700     16.43385200
C          13.76633400     16.95709700     17.46395000
H          13.32447100     17.75847000     18.09599500
H          14.41494600     16.33561400     18.13845100
C          12.66190400     16.09282200     16.81551800
H          11.68246500     16.36652300     17.25702500
H          12.56927600     16.33813300     15.73300800
C          12.89500800     14.60152600     16.98338100
H          12.05507600     14.03319600     16.53986800
H          12.90480800     14.31544600     18.05078800
S          14.43563300     13.99129800     16.23057500
O          14.10834900     12.69153900     15.67131800
O          14.89090200     15.03374800     15.24885600
O          15.41084700     14.01349500     17.36983100
P          18.49381400     14.28435000     15.79057400
O          18.73311000     15.63818800     16.29739100
O          19.84569500     13.62339400     15.26653100
H          19.60837500     12.67949000     14.91993200
O          17.91906600     13.21112300     16.78550300
H          16.94354900     13.52982200     17.13181400
O          17.59827600     14.27451400     14.46449900
H          16.61331300     14.51901500     14.68018200
          33
 G =       -0.415647 Gcorr = 0.181604 a.u. Nimag =   0 Frame:    12 Step:    12 Geom:    12
C          16.58998200     18.71257400     15.36681700
C          15.86815100     18.42364500     16.51897100
C          15.21423900     16.98357100     14.91756900
N          16.15760200     17.82155300     14.38331000
H          17.37596200     19.42572700     15.20530800
H          15.94018500     18.85495500     17.49885100
H          14.73599300     16.12496900     14.40138900
C          16.78450800     17.63709700     13.08653500
H          16.46871300     18.42006600     12.37700200
H          17.89253400     17.65183600     13.18606300
H          16.53885400     16.63598400     12.66811000
N          15.01402700     17.35753600     16.21798600
C          14.24175900     16.62421900     17.22629400
H          13.96171400     17.33013700     18.03943700
H          14.93565800     15.86723400     17.69982200
C          12.98623100     15.94545200     16.64658800
H          12.08390800     16.41560100     17.09041300
H          12.88867000     16.14181500     15.55842100
C          12.94713300     14.44579900     16.90832700
H          11.99507000     14.02119600     16.54078500
H          12.96327500     14.23165200     17.99174800
S          14.30932500     13.51051200     16.13620200
O          13.75183800     12.21825100     15.77807000
O          14.75112000     14.37365000     14.98400500
O          15.36988700     13.52313700     17.18571500
P          18.09925900     15.33410300     15.96130300
O          17.73667800     16.64254400     16.51331400
O          19.63917200     15.33935500     15.53494500
H          19.87193500     14.39179200     15.20171700
O          17.97233400     14.05661500     16.86831800
H          16.92211100     13.84127600     17.05086100
O          17.38131400     15.03091600     14.56641000
H          16.40087900     14.67525100     14.71941800
          33
 G =       -0.408027 Gcorr = 0.181559 a.u. Nimag =   0 Frame:    13 Step:    13 Geom:    13
C          15.23507700     18.77282400     14.65251600
C          14.22661100     18.60183600     15.58879000
C          15.86057800     17.10931800     16.04110900
N          16.23903200     17.84656200     14.95278200
H          15.30135700     19.45642200     13.82810900
H          13.29144400     19.11567200     15.69802900
H          16.44052900     16.32026200     16.54426400
C          17.44373300     17.64914200     14.16711700
H          18.33730500     17.53633100     14.82201000
H          17.36356000     16.70997400     13.56667300
H          17.62021900     18.49016600     13.47951700
N          14.63717400     17.58171900     16.45319000
C          13.78023100     16.93251200     17.44634500
H          13.34515400     17.71187200     18.10980100
H          14.41173200     16.27015100     18.09815400
C          12.66866100     16.11717600     16.74877800
H          11.68942500     16.38603500     17.19376000
H          12.59023400     16.41376700     15.67800400
C          12.87636300     14.61602800     16.84904100
H          12.03322900     14.08285000     16.36952100
H          12.86835900     14.28005100     17.90191700
S          14.41671900     14.01706600     16.08689600
O          14.07917900     12.74526600     15.47235600
O          14.89618700     15.09203300     15.15375800
O          15.38003900     13.98034000     17.23656400
P          18.48654200     14.26306200     15.70710800
O          18.74107600     15.59137400     16.27063100
O          19.83403000     13.60114400     15.17314700
H          19.58649500     12.67480800     14.78822100
O          17.88126300     13.16081600     16.65071500
H          16.90568600     13.48090000     16.99693000
O          17.60830200     14.32204300     14.37047100
H          16.62449900     14.57050300     14.58380400
          33
 G =       -0.409214 Gcorr = 0.182304 a.u. Nimag =   0 Frame:    14 Step:    14 Geom:    14
C          15.00587600     18.88483500     14.85170200
C          14.04791900     18.68425900     15.83342200
C          15.75294800     17.25723500     16.22084400
N          16.05917500     18.00255000     15.11563800
H          15.00948200     19.56003900     14.01834200
H          13.10124600     19.16374000     15.98160300
H          16.40423400     16.48433000     16.68609400
C          17.14971700     17.67827700     14.21076300
H          16.92140200     16.70735600     13.69257500
H          17.29618100     18.45974100     13.45233200
H          18.09851400     17.52735900     14.76613100
N          14.52985200     17.68186200     16.68837500
C          13.70522200     16.94827500     17.65373200
H          13.18234600     17.68460500     18.30308100
H          14.37442300     16.34413100     18.32137300
C          12.67784700     16.03553700     16.93825100
H          11.72518600     16.07024600     17.50447100
H          12.43891100     16.45933000     15.93604000
C          13.11182000     14.57990300     16.78352800
H          12.34604000     14.01033100     16.22833700
H          13.20010900     14.08394000     17.76622700
S          14.69981000     14.43221700     15.92265700
O          14.84336400     13.08607500     15.36649800
O          14.71314800     15.55781400     14.96038600
O          15.67845800     14.72633300     17.03612500
P          18.53656000     13.78921500     15.38660900
O          18.45423300     15.10385100     14.75519300
O          20.03312500     13.23613400     15.32308200
H          20.03531200     12.29229300     15.73423400
O          18.20197000     13.71970900     16.93397100
H          17.21947300     14.10235300     17.08498700
O          17.73330100     12.59817700     14.69916700
H          16.71281600     12.70797500     14.87425500
          33
 G =       -0.416638 Gcorr = 0.182235 a.u. Nimag =   0 Frame:    15 Step:    15 Geom:    15
C          16.18116200     18.45756700     14.77860800
C          14.84544900     18.10898100     14.94427200
C          15.97740800     17.38382500     16.75203500
N          16.85964700     18.02349100     15.91855900
H          16.67637100     18.91546400     13.94172800
H          14.01511600     18.23546600     14.27697000
H          16.22045800     16.85868300     17.68754000
C          18.29944300     18.06917100     16.10293100
H          18.82500900     17.85848200     15.14548800
H          18.61667300     19.05577500     16.48170000
H          18.63605400     17.27706400     16.80702100
N          14.73968300     17.45769600     16.17504700
C          13.51619700     16.86571400     16.71815100
H          12.69947800     17.61865900     16.65226200
H          13.67488800     16.65466600     17.80592700
C          13.12859600     15.57366300     15.96626600
H          12.15124000     15.72072300     15.46600000
H          13.83862700     15.38100400     15.12682400
C          13.05940200     14.36838300     16.89097500
H          12.52561300     13.53670200     16.39236200
H          12.47656600     14.58411500     17.80058800
S          14.69774900     13.73811400     17.37382300
O          14.49257300     13.07590400     18.65283100
O          15.12333800     12.88671200     16.23361300
O          15.56012400     14.97887900     17.44270300
P          17.07220900     14.99239800     14.24439500
O          16.12307300     16.01390400     13.79288800
O          18.41859300     15.10318300     13.38675300
H          19.01413400     14.30187200     13.63688900
O          17.61645300     15.24683900     15.72226600
H          16.84209900     15.05724400     16.43017800
O          16.67414400     13.47658600     14.12052400
H          16.04245500     13.20310000     14.96190700
          33
 G =       -0.415653 Gcorr = 0.181304 a.u. Nimag =   0 Frame:    16 Step:    16 Geom:    16
C          16.59485600     18.66789300     15.58617000
C          15.72006100     18.38875100     16.63018900
C          15.27665000     16.95046300     14.95703900
N          16.29092000     17.77928600     14.55395300
H          17.40336000     19.37219300     15.53280500
H          15.66221500     18.82251700     17.60988900
H          14.86837200     16.09216400     14.38413900
C          17.08426600     17.58811000     13.35290000
H          16.85988800     18.36279300     12.60068800
H          18.16934300     17.61170200     13.59689700
H          16.90145700     16.58175700     12.91490600
N          14.90549700     17.32972900     16.21765900
C          13.98174700     16.61525900     17.10405500
H          13.61397400     17.32244600     17.87934500
H          14.58270200     15.83088400     17.66162300
C          12.79982800     15.97990900     16.34708000
H          11.85766600     16.46843900     16.67215900
H          12.85816100     16.19502900     15.25968900
C          12.68461400     14.47742000     16.56957200
H          11.82414300     14.07346000     16.00642000
H          12.47424200     14.24934800     17.62976700
S          14.16759700     13.53643100     16.08546500
O          13.70546300     12.20282900     15.74608900
O          14.76984400     14.33198900     14.95980100
O          15.04704800     13.66596100     17.28782900
P          17.99226800     15.28819400     16.36566900
O          17.61585700     16.63152300     16.81495100
O          19.57399700     15.21566100     16.15286100
H          19.80648800     14.24899700     15.87952200
O          17.68696100     14.05524200     17.29107800
H          16.61086600     13.90079100     17.35029100
O          17.45652200     14.95808700     14.89630100
H          16.46315100     14.61476900     14.92323100
          33
 G =       -0.415639 Gcorr = 0.181318 a.u. Nimag =   0 Frame:    17 Step:    18 Geom:    18
C          16.60181900     18.61902900     15.68960200
C          15.69702400     18.32647300     16.70395300
C          15.28724200     16.92600500     14.99064700
N          16.31862300     17.75400600     14.63174400
H          17.41713400     19.31723600     15.67210700
H          15.61634400     18.74096800     17.69036500
H          14.88716100     16.08342900     14.38956900
C          17.14298200     17.57977300     13.44911300
H          16.94671600     18.37202100     12.70742900
H          18.22111900     17.58759500     13.72318100
H          16.96303400     16.58449100     12.98542500
N          14.88543300     17.28292400     16.24841700
C          13.93215100     16.55902800     17.09500300
H          13.54932600     17.25372300     17.87431500
H          14.51138100     15.75846800     17.65269800
C          12.76606100     15.94917200     16.29385000
H          11.81932800     16.43875100     16.60379800
H          12.85519100     16.18605300     15.21311600
C          12.63301100     14.44337300     16.48183700
H          11.78565700     14.05835700     15.88654100
H          12.39114200     14.19543400     17.53082000
S          14.12172300     13.50014900     16.02031900
O          13.65937400     12.17717700     15.64207100
O          14.76087100     14.31272100     14.92763800
O          14.96832900     13.59926400     17.24897000
P          17.95099100     15.21295500     16.43795800
O          17.57321900     16.55028900     16.90371100
O          19.53730400     15.13094300     16.26707400
H          19.76938700     14.16769500     15.98158300
O          17.61055600     13.96401700     17.32909800
H          16.53210300     13.81897600     17.35777100
O          17.45262500     14.91699200     14.94825100
H          16.45566300     14.58253300     14.94204700
          33
 G =       -0.415648 Gcorr = 0.181309 a.u. Nimag =   0 Frame:    18 Step:    19 Geom:    19
C          16.66286000     18.67631800     15.77883800
C          15.74975500     18.37709800     16.78378300
C          15.35134100     16.99092000     15.05625700
N          16.38665400     17.82022600     14.71198400
H          17.47934200     19.37339100     15.77343900
H          15.66189300     18.78399200     17.77272800
H          14.95497100     16.15341300     14.44545600
C          17.21958100     17.65437900     13.53416800
H          18.29568400     17.65923900     13.81624000
H          17.04229300     16.66284100     13.06156600
H          17.02943300     18.45244700     12.79715200
N          14.94028200     17.33841000     16.31365000
C          13.97936100     16.60913900     17.14687000
H          13.59114200     17.29822600     17.92848300
H          14.55309300     15.80345100     17.70270100
C          12.81885800     16.00725900     16.33161800
H          11.87038700     16.49564600     16.63796900
H          12.91690700     16.25266000     15.25355500
C          12.68242800     14.50022600     16.50651500
H          11.83914400     14.12106200     15.90170200
H          12.43219600     14.24424300     17.55156500
S          14.17334300     13.55866900     16.04866200
O          13.71209200     12.23935700     15.65645000
O          14.82161900     14.37908100     14.96719400
O          15.01098500     13.64684800     17.28413700
P          18.00186000     15.26237600     16.50963600
O          17.62264400     16.59664500     16.98295400
O          19.58926700     15.17929000     16.34970900
H          19.82192400     14.21824100     16.05737900
O          17.65297200     14.00756700     17.38913300
H          16.57417000     13.86298500     17.40725600
O          17.51442500     14.97845400     15.01400500
H          16.51711300     14.64592200     14.99727000
          33
 G =       -0.415648 Gcorr = 0.181310 a.u. Nimag =   0 Frame:    19 Step:    20 Geom:    20
C          16.68325300     18.61009900     15.62052500
C          15.81409900     18.34956300     16.67402900
C          15.32761900     16.91556800     15.00921300
N          16.35268800     17.72476700     14.59372800
H          17.50395700     19.29932300     15.55726500
H          15.77406000     18.78677700     17.65308300
H          14.89765900     16.06380100     14.44253800
C          17.13055500     17.51584200     13.38551000
H          18.21823200     17.51898100     13.61907100
H          16.92413800     16.51237400     12.95152900
H          16.91402800     18.29324500     12.63381300
N          14.97629000     17.30452500     16.27254300
C          14.04860400     16.60936000     17.17009800
H          13.70109900     17.32535000     17.94668300
H          14.64093700     15.81603500     17.72423700
C          12.84813800     15.99298900     16.42675900
H          11.91804200     16.49877900     16.76007400
H          12.89923500     16.20438100     15.33829600
C          12.70871000     14.49327100     16.65430000
H          11.83587300     14.10317500     16.10056100
H          12.50470600     14.27162300     17.71709500
S          14.17022400     13.52519000     16.15848800
O          13.68177500     12.19900800     15.82706100
O          14.77535100     14.30731600     15.02492100
O          15.06330600     13.64247900     17.35203500
P          18.02795600     15.20832300     16.39524700
O          17.68011600     16.55955000     16.84386400
O          19.60595500     15.10677600     16.16707900
H          19.81798300     14.13586800     15.89227200
O          17.70982000     13.98398200     17.32771200
H          16.63180400     13.84888900     17.39760700
O          17.47182600     14.88296800     14.93234900
H          16.47198200     14.55985000     14.97043600
          33
 G =       -0.415681 Gcorr = 0.181570 a.u. Nimag =   0 Frame:    20 Step:    21 Geom:    21
C          16.64928200     18.64551000     15.58552800
C          15.79009600     18.38839000     16.64742600
C          15.28052500     16.95653700     14.98727300
N          16.30565100     17.76044900     14.56241300
H          17.47078900     19.33276200     15.51311000
H          15.76194300     18.82490300     17.62725300
H          14.83796200     16.10959000     14.42246700
C          17.07223100     17.54601200     13.34793400
H          16.86493200     18.33194600     12.60254400
H          18.16122500     17.52846300     13.57490300
H          16.84571000     16.54913400     12.90901500
N          14.94296000     17.34704600     16.25399400
C          14.03723200     16.64511300     17.16934000
H          13.68786000     17.36519100     17.94225600
H          14.64788400     15.87060600     17.72246000
C          12.83604700     16.00119400     16.45132000
H          11.90395300     16.50250800     16.78613200
H          12.87078300     16.19212800     15.35836000
C          12.71957400     14.50560200     16.71292000
H          11.80315200     14.10786400     16.23982300
H          12.60416800     14.29936700     17.79183800
S          14.13101800     13.52232200     16.10664500
O          13.57687500     12.24611800     15.69031200
O          14.73063800     14.36301800     15.01041800
O          15.06324600     13.50811600     17.27130800
P          17.97031200     15.22611000     16.36660900
O          17.58697400     16.54893300     16.86796100
O          19.54868700     15.18181500     16.12123700
H          19.78961200     14.22448200     15.82415000
O          17.70076100     13.96053700     17.25916200
H          16.63106500     13.77466900     17.31635300
O          17.40976000     14.93388900     14.89938100
H          16.40711600     14.60970800     14.93818300
