          40
 Energy =     -0.63667000 a.u.  #Cluster:    1
C           3.78380300      9.99226700     11.00589700
H           2.71307600      9.74331900     10.96990700
H           3.91272500     10.99659500     11.43480800
H           4.25626300      9.27281000     11.72173000
C           4.36541100      8.41956900      9.23301400
H           3.31567400      8.05665600      9.30833900
H           4.93630300      7.84719100     10.01687200
C           5.84169300     10.37262900      9.70416200
H           6.56267600      9.51862400      9.76146600
H           6.12788800     10.94757300      8.80970300
H           6.03870800     10.97711900     10.60415100
C           3.63756200     10.72904200      8.68641000
H           3.61308300     11.78165900      9.01479600
H           4.09101100     10.70350900      7.67823000
H           2.59883900     10.37072700      8.59481500
C           4.92996000      8.14878600      7.83497600
H           5.81894700      8.78538900      7.62481100
H           4.18635900      8.42340400      7.06066800
C           5.29598200      6.67694100      7.67564200
H           5.52208500      6.45549000      6.61605800
H           4.43493300      6.03011300      7.93265500
N           4.42128100      9.88204600      9.64682400
S           6.71869700      6.14690100      8.67948100
O           7.49998600      7.40245100      8.94733900
O           6.06930100      5.69087800      9.95472200
O           7.40950700      5.13278600      7.90821800
P           7.28360400      7.87643700     12.43430700
O           6.24883600      8.87618400     12.14466100
O           8.54404200      7.91921000     11.47270800
H           8.21489700      7.75072400     10.48009100
O           7.91225900      8.13246600     13.87548400
H           8.62778900      7.40230200     14.02847800
O           6.80576200      6.37039900     12.51356000
H           6.52622700      6.04766700     11.53806100
O           3.44649300      6.05876700     10.70637300
H           3.38383400      5.71642000     11.59186000
H           4.36773500      5.83566400     10.43487500
O           8.00973400      9.81004800      7.74619500
H           8.94367500      9.84482300      7.57689200
H           7.87336500      8.92443200      8.16076900
          40
 Energy =     -0.63559200 a.u.  #Cluster:    2
C           3.78499500      9.91636500     10.89528300
H           2.83940600      9.34580000     10.86615100
H           3.60595500     10.91855800     11.30254000
H           4.43772900      9.36358300     11.61804600
C           4.63091200      8.53897100      9.07236000
H           3.64190100      8.02601800      9.06597000
H           5.23795200      8.02927200      9.87747800
C           5.74420200     10.68989800      9.64868300
H           6.46246800     10.11689000     10.28994000
H           6.24967400     10.79114200      8.67002600
H           5.62890300     11.68386200     10.09784400
C           3.53507500     10.71445600      8.59610700
H           3.32386200     11.73219000      8.96426800
H           3.99954200     10.80850600      7.59865800
H           2.57233400     10.18908200      8.47218200
C           5.31634700      8.38228000      7.71355300
H           6.28092700      8.93730400      7.68008100
H           4.69677800      8.81428900      6.90481300
C           5.56774500      6.90542200      7.42095500
H           6.01889800      6.78951800      6.41831400
H           4.62111900      6.33904400      7.38649200
N           4.43494600      9.97060100      9.53806500
S           6.66424700      6.09332500      8.62658700
O           7.71498400      7.11529000      8.93937300
O           5.77642900      5.92807100      9.82950000
O           7.12215200      4.87216900      7.99529600
P           7.37453500      7.74357600     12.38222300
O           6.53441900      8.91000200     12.08731400
O           8.66239600      7.56422100     11.47970600
H           8.35519800      7.38712900     10.47620800
O           7.97285800      7.85116100     13.85410300
H           8.55457000      7.01025000     14.00749700
O           6.61812900      6.35073200     12.40472600
H           6.28911600      6.11906400     11.42052600
O           3.48991700      6.89037100     11.20521500
H           3.72231700      6.71512300     12.11652700
H           4.19846300      6.43367500     10.70176300
O           8.29774000      9.82798600      8.65562700
H           9.10879200      9.93420200      9.14425000
H           8.09207300      8.87061900      8.75576700
          40
 Energy =     -0.63326500 a.u.  #Cluster:    3
C           3.77207900      9.73819100     11.33245700
H           2.88366700      9.08687100     11.42628100
H           3.57181900     10.71150600     11.79597500
H           4.57113600      9.22919100     11.92819800
C           4.47330900      8.48221000      9.36425600
H           3.55256600      7.86446500      9.48838600
H           5.24192600      8.02855000     10.05621800
C           5.42335400     10.73527000      9.82392600
H           5.74970700     10.90513000      8.78188900
H           5.27367900     11.70498200     10.31526200
H           6.28843900     10.23399600     10.32475400
C           3.08723500     10.52837400      9.12258400
H           2.82447000     11.51059700      9.54912300
H           3.37741600     10.68602100      8.06901400
H           2.18003700      9.89872000      9.13091200
C           4.96620500      8.42186300      7.91736100
H           5.89880200      9.01733600      7.78615300
H           4.22707800      8.86652300      7.22468600
C           5.22470500      6.97247300      7.51439700
H           5.54085700      6.92360300      6.45621600
H           4.30188500      6.37033600      7.57511900
N           4.19665200      9.87762800      9.89475400
S           6.50101200      6.14988600      8.51948500
O           7.54762900      7.19935400      8.73673700
O           5.79354800      5.89582400      9.82238600
O           6.90754400      4.97722600      7.77203400
P           7.65024400      7.65645300     12.24378000
O           6.69425000      8.76617200     12.18065000
O           8.79204900      7.65785700     11.14616400
H           8.35874800      7.47137700     10.19402700
O           8.46724700      7.70931600     13.61007500
H           9.12608800      6.91283400     13.60167000
O           7.01725700      6.20359900     12.26214200
H           6.53767600      6.02148100     11.33182400
O           3.64498500      6.68927300     11.44699000
H           3.95038700      6.47168200     12.32602000
H           4.32763600      6.28546700     10.86454300
O           7.98736400      9.93748400      8.61811900
H           8.74372100     10.02736200      9.19362200
H           7.85560100      8.96353700      8.57183200
          40
 Energy =     -0.63215900 a.u.  #Cluster:    4
C           4.10785600     10.09872100     10.80290800
H           3.13931600      9.58652200     10.94669900
H           4.03470800     11.15036600     11.11992500
H           4.81956000      9.59666800     11.49952500
C           4.70814400      8.49477100      9.06575600
H           3.68656800      8.04765300      9.05089400
H           5.23412500      8.01552400      9.94570100
C           5.88802900     10.68657600      9.21516400
H           6.70946900     10.13105200      9.73066400
H           6.17287800     10.77817300      8.15805200
H           5.86134700     11.69292900      9.66990900
C           3.56006100     10.61020300      8.47855400
H           3.45033800     11.68534400      8.69865000
H           3.84437500     10.50290900      7.41832900
H           2.57109800     10.13481000      8.60893200
C           5.46870600      8.16222600      7.78085100
H           6.55026200      8.41601100      7.88825200
H           5.09541700      8.75449600      6.92578700
C           5.32516700      6.67407500      7.47278600
H           5.73979800      6.44916000      6.47380800
H           4.26824200      6.36618500      7.43175200
N           4.58019000      9.97386800      9.37866200
S           6.19054600      5.60708100      8.67320700
O           7.57464800      6.14535000      8.71433500
O           5.48209600      5.90199000      9.97629100
O           6.02208600      4.25377700      8.17587500
P           7.84570000      7.69682200     11.79536100
O           7.13466900      8.90870600     11.34589500
O           8.94148100      7.13805900     10.81727900
H           8.44287600      6.74093700      9.93836800
O           8.65459900      8.03804800     13.12839900
H           9.15205000      7.17906600     13.41088200
O           6.89942000      6.50761000     12.22829700
H           6.30494300      6.22780200     11.38085000
O           3.21423200      7.06607500     11.04822100
H           2.96540400      6.56820300     11.81855700
H           3.99593100      6.57661100     10.69037300
O           6.32191100     11.57576500     12.07133700
H           6.66932600     10.68056400     11.92138200
H           6.80243700     11.88930700     12.83355000
          40
 Energy =     -0.63205100 a.u.  #Cluster:    5
C           3.94091600      9.86876100     11.38802200
H           3.06520300      9.20531600     11.51600500
H           3.74150500     10.84323900     11.84936700
H           4.76590900      9.37653200     11.96134200
C           4.54381400      8.59889900      9.39775700
H           3.62168500      7.99564600      9.57770200
H           5.34552300      8.14893400     10.04788800
C           5.56020700     10.82785100      9.82100500
H           5.85835700     10.98005900      8.76759000
H           5.44892200     11.80504500     10.30720300
H           6.42755100     10.30748700     10.29951700
C           3.19441800     10.67705900      9.20446500
H           2.96555300     11.66233800      9.64327800
H           3.45189300     10.83454300      8.14226300
H           2.27587500     10.06489300      9.24072100
C           4.95168200      8.51889600      7.92583600
H           5.90259500      9.07004400      7.74314200
H           4.19711100      8.99921500      7.27488500
C           5.11555400      7.05907600      7.51048400
H           5.34271700      6.99779200      6.42987500
H           4.17512300      6.49777100      7.64600100
N           4.31578000     10.00096100      9.93557600
S           6.43342000      6.17260000      8.40467700
O           7.48638800      7.21260600      8.64815300
O           5.78923800      5.81615800      9.71333400
O           6.81362500      5.06246700      7.55417300
P           7.73168200      7.57489900     12.12450000
O           6.84696000      8.74343000     12.07626400
O           8.84440400      7.49333400     11.00280200
H           8.36882400      7.38271000     10.05494000
O           8.57439800      7.57791500     13.47593200
H           9.17315300      6.73516600     13.46274400
O           6.99856700      6.16914300     12.16814400
H           6.55181800      5.97312100     11.22654300
O           3.75617300      6.74390600     11.41512600
H           4.12109900      6.55246200     12.27826500
H           4.38435800      6.29602300     10.80339400
O           8.03946700      9.92863700      8.52249500
H           8.83637000      9.98371200      9.04444800
H           7.86216700      8.96137000      8.48416000
          40
 Energy =     -0.63189200 a.u.  #Cluster:    6
C           4.33832700     10.19470700     10.69408700
H           3.33231000      9.79557500     10.91263800
H           4.39009300     11.26202900     10.95890700
H           5.03151400      9.65034000     11.38091200
C           4.68450000      8.45732200      9.01541000
H           3.63493000      8.10308600      9.12793800
H           5.25719200      7.97518400      9.86381700
C           6.08450500     10.51757400      9.00012600
H           6.34167900     10.49268800      7.93238900
H           6.17050500     11.55586100      9.36680300
H           6.86370700      9.92680300      9.54309700
C           3.72585500     10.65225200      8.37444800
H           3.72551900     11.74007700      8.55858900
H           3.95531000     10.48570900      7.30864200
H           2.70381400     10.27697700      8.56032500
C           5.27632200      7.99935900      7.68096400
H           6.36657100      8.23127200      7.63280600
H           4.80913300      8.52776400      6.83014900
C           5.07330700      6.49472800      7.52193100
H           5.36517000      6.17452000      6.50575800
H           4.01358800      6.21293400      7.62907700
N           4.71968100      9.95457400      9.25764000
S           6.05294300      5.51544400      8.70915400
O           7.41096000      6.12150100      8.65453300
O           5.40688300      5.83722100     10.03648000
O           5.92816900      4.13688500      8.27436800
P           7.84070700      7.61831000     11.74071900
O           7.10127600      8.82891300     11.33235600
O           8.88348600      7.07052300     10.70072500
H           8.33956900      6.68904100      9.83987600
O           8.71610300      7.95576800     13.03097600
H           9.22889700      7.09581500     13.28324500
O           6.91936600      6.42484900     12.21220000
H           6.29240700      6.14054600     11.38570500
O           3.51990400      7.34399600     11.46783000
H           3.79401300      7.20998200     12.37201600
H           4.08663200      6.71605200     10.96449000
O           6.71989800     11.65175900     11.73772200
H           6.93250400     10.70557400     11.68805200
H           7.29275900     11.98649500     12.42311600
          40
 Energy =     -0.63156000 a.u.  #Cluster:    7
C           2.61706500      9.75752300     10.47277600
H           1.83654100     10.12752700      9.79279100
H           2.65273900     10.41332600     11.35826200
H           2.31090700      8.74644500     10.82766500
C           3.85940300      8.68712200      8.65280500
H           2.95841700      8.92671200      8.05216600
H           3.66983400      7.67549300      9.10569100
C           4.97896200      9.24619100     10.80655300
H           5.94174200      9.00034000     10.30692400
H           5.18219100     10.02028200     11.56142800
H           4.66574500      8.31866600     11.32966200
C           4.32566300     11.04646000      9.28340300
H           4.24375700     11.80903500     10.07500500
H           5.38816800     11.06249000      8.93986500
H           3.69110700     11.34536900      8.43741500
C           5.10012300      8.64028600      7.74930300
H           5.95610100      9.21061400      8.18604700
H           4.88635700      9.17044700      6.79870500
C           5.53220600      7.21105700      7.44583700
H           6.12010100      7.18390000      6.50796300
H           4.66882600      6.55172200      7.26068200
N           3.95882400      9.68572600      9.79754200
S           6.56770700      6.46986000      8.74482000
O           7.69264200      7.43603200      8.92775400
O           5.69815900      6.49857700      9.97510700
O           6.90887500      5.14700300      8.25869200
P           8.08671600      7.84164600     12.38339500
O           7.59755900      9.20810600     12.18019100
O           9.13463800      7.30662100     11.32144100
H           8.70362800      7.38447900     10.35778900
O           8.86121600      7.70167400     13.76624300
H           9.16031900      6.71503400     13.84815000
O           6.95644800      6.72937000     12.51074300
H           6.47244400      6.61196500     11.58876900
O           3.13669900      6.47583500     10.82246100
H           2.96903100      5.65406600     11.26782500
H           4.08971900      6.41222300     10.54453600
O           7.65413700     10.24814700      9.17607600
H           7.90456800     10.29284400     10.10417700
H           7.84072400      9.30980000      8.95335800
          40
 Energy =     -0.63136200 a.u.  #Cluster:    8
C           2.48042900      9.58959700     10.25687400
H           1.80537300      9.86666200      9.43396300
H           2.26024500     10.23714500     11.11917400
H           2.22510400      8.54083000     10.55919200
C           4.16103400      8.66966900      8.71353000
H           3.52557500      8.95257700      7.84967800
H           3.76799800      7.67149400      9.08123400
C           4.79618300      9.33957400     11.04187200
H           5.88693000      9.46410000     10.79827100
H           4.57083300      9.96326900     11.91392400
H           4.69137000      8.26662800     11.32675500
C           4.25262200     11.07384400      9.38172300
H           3.98962600     11.82921900     10.13763400
H           5.36047600     11.19253200      9.20302400
H           3.74050600     11.32439400      8.44290900
C           5.62674100      8.53834500      8.28252000
H           6.32342300      8.79537700      9.12754400
H           5.85705300      9.28819500      7.49723400
C           5.94367600      7.14577200      7.76264200
H           6.93905500      7.16522100      7.26429100
H           5.25009300      6.86108900      6.94497800
N           3.93751800      9.67408200      9.84846100
S           5.94845400      5.89094500      9.02478100
O           7.36491300      5.48361600      9.18198100
O           5.50052500      6.56413500     10.34120600
O           4.97074900      4.88937900      8.63617500
P           8.36297700      7.91351600     11.34218600
O           7.83585600      9.07663400     10.56353900
O           9.20708800      6.80875400     10.52251700
H           8.66379100      6.09782900      9.94225900
O           9.43596800      8.37542200     12.48753300
H           9.95548300      7.64157100     12.92003700
O           7.22778500      7.11672300     12.16293500
H           6.40889100      6.69933700     11.57196700
O           2.90609300      6.57328300     10.47979700
H           2.67770000      5.74117800     10.06066900
H           3.83765400      6.43147700     10.81971900
O           7.23906600     11.14620400      9.50961000
H           7.46651300     11.04154800     10.45140400
H           7.76864000     10.44885500      9.08428000
          40
 Energy =     -0.63034000 a.u.  #Cluster:    9
C           2.42214500      9.67170700     10.20600400
H           1.77308500      9.97567400      9.37116800
H           2.17597800     10.29284300     11.08046900
H           2.15525300      8.61455500     10.46294800
C           4.15264100      8.75498800      8.72259900
H           3.58292100      9.06055300      7.82147000
H           3.69238200      7.76958000      9.05855700
C           4.71352300      9.45170700     11.06876100
H           5.81265500      9.54366800     10.84960900
H           4.47958300     10.10839800     11.91350400
H           4.58414700      8.38883200     11.38251600
C           4.21305100     11.16277800      9.37494900
H           3.92194900     11.92334100     10.11515100
H           5.32456500     11.28412200      9.22989800
H           3.72924300     11.40204500      8.41824300
C           5.63533000      8.57090400      8.38489500
H           6.29121300      8.87994900      9.24653000
H           5.92227400      9.26036300      7.56361100
C           5.96512700      7.14255000      7.98280700
H           7.01711200      7.10757100      7.61681700
H           5.37114700      6.83904900      7.09557800
N           3.89145900      9.76486400      9.84424800
S           5.75558200      5.95769600      9.28895700
O           7.07744200      5.30175800      9.44367200
O           5.44159600      6.71596200     10.58630900
O           4.58832700      5.14206700      8.94658500
P           8.35545000      7.91370900     11.35685000
O           7.81037100      9.11417200     10.65390600
O           9.02431200      6.78612000     10.41306800
H           8.41016500      5.98769900     10.05328300
O           9.57990000      8.30042800     12.37008700
H          10.08846800      7.53467700     12.75600500
O           7.29566200      7.14528600     12.29766200
H           6.38588800      6.79932400     11.80919500
O           2.86184400      6.58683700     10.29567400
H           2.92382500      5.77233400      9.74715200
H           3.61267400      6.50277300     10.92668600
O           7.19603400     11.19415000      9.63194200
H           7.40674200     11.07981200     10.57630700
H           7.74894700     10.51517200      9.20635600
          40
 Energy =     -0.62971700 a.u.  #Cluster:   10
C           4.25380700     10.13481100     10.82671500
H           3.26884000      9.69697000     11.06212300
H           4.27756000     11.19904000     11.10868800
H           4.98359400      9.60453900     11.48639700
C           4.62312800      8.43605400      9.11952400
H           3.61083200      8.02554100      9.34488700
H           5.31333700      7.99682600      9.89363300
C           5.94838800     10.53886900      9.09731900
H           6.19766200     10.50164200      8.02768000
H           6.00129500     11.58511600      9.44572900
H           6.75183300      9.98304400      9.64251200
C           3.56934900     10.60734700      8.52943500
H           3.51441300     11.68646000      8.75322600
H           3.79645500     10.49395700      7.45588600
H           2.57056300     10.17152300      8.70909500
C           5.08299600      8.01400200      7.72334100
H           6.13466400      8.33523800      7.53863700
H           4.47055900      8.49201400      6.93697000
C           4.98317800      6.49583800      7.59176700
H           5.13567600      6.19466700      6.53956000
H           3.97828600      6.13117500      7.86081400
N           4.60673400      9.93166200      9.37673900
S           6.20856000      5.59229500      8.60092800
O           7.42570600      6.45182000      8.55320600
O           5.61841500      5.62411400      9.98817800
O           6.31271300      4.27702700      7.99659800
P           7.88615200      7.63346300     11.74565800
O           7.02681300      8.79916900     11.45869100
O           8.92218600      7.26108800     10.62488500
H           8.36804700      6.94915200      9.73996200
O           8.78580500      7.95594600     13.02304800
H           9.37178300      7.12392000     13.19890500
O           7.10009600      6.32910600     12.16511900
H           6.50840400      6.00293700     11.33011200
O           3.66058600      7.04163700     11.40331300
H           3.95639900      6.95434500     12.30633400
H           4.26540800      6.43870000     10.90927300
O           6.63877700     11.62983700     11.79931100
H           6.86326900     10.68510200     11.76940900
H           7.23773800     11.99402000     12.44641200
          40
 Energy =     -0.62682600 a.u.  #Cluster:   11
C           4.09798300     10.04144600     10.75254900
H           3.07256400      9.66261300     10.89565700
H           4.15017500     11.09892600     11.05906700
H           4.73192400      9.45701400     11.46028000
C           4.45641300      8.36497500      9.02458900
H           3.42185200      8.01656700      9.23638200
H           5.11653600      7.84831500      9.78589600
C           5.98525600     10.31102500      9.18094400
H           6.69511700      9.44343900      9.19415400
H           6.15048700     10.85021600      8.24106900
H           6.29868100     10.95968400     10.02141200
C           3.66749500     10.64481900      8.43176100
H           3.70939600     11.71886400      8.68391300
H           3.96179700     10.53043100      7.37461700
H           2.61826000     10.31508300      8.52506900
C           4.88534300      7.97365400      7.60814600
H           5.84626700      8.46280900      7.32930100
H           4.14170200      8.31204200      6.86230300
C           5.04346100      6.45797400      7.51746700
H           5.26392200      6.15554100      6.47852700
H           4.10801800      5.93901200      7.78591300
N           4.56222500      9.84642200      9.33349400
S           6.37799500      5.82442400      8.58736900
O           7.41549600      6.89791200      8.55147400
O           5.73368600      5.81319400      9.95220200
O           6.74939100      4.53010500      8.04972200
P           7.91794000      7.81948700     11.81864800
O           7.08569200      8.99961700     11.53088800
O           8.96268500      7.44688700     10.70110000
H           8.41761300      7.26708800      9.78287900
O           8.80628200      8.09123900     13.11474100
H           9.36942600      7.24172100     13.28117700
O           7.11187400      6.51369700     12.20003200
H           6.56853000      6.18297600     11.33855400
O           3.69408100      7.01799200     11.52949400
H           4.04048900      6.93114400     12.41585200
H           4.31837400      6.48300400     10.99085300
O           6.09118700     11.54051300     12.43119800
H           6.48974800     10.67951500     12.22792900
H           6.57464900     11.84862300     13.19339400
