%nproc=24
%mem=50GB
#p M062X/6-311+G(2d,p) nosymm em=GD3 counterpoise=2

Title Card Required

0 1
C          12.29067600      9.20028800      9.50011500       1
C          12.88302100     10.37909100      9.96622700       1
C          13.93882100     10.92690700      9.23854400       1
C          14.36965000     10.29002500      8.07742600       1
C          13.72393100      9.11258600      7.67665900       1
N          12.70363800      8.58223800      8.37673500       1
H          14.42142600     11.84390700      9.57638500       1
H          11.45897700      8.72195700     10.03033500       1
H          12.52634300     10.85391400     10.87539300       1
H          15.19125800     10.69165100      7.49106100       1
H          14.02704100      8.56760900      6.76899700       1
P          12.63864200      5.44280000      6.38167600       2
O          13.07041300      6.40100000      5.36270700       2
O          13.91517000      4.81637800      7.09593800       2
H          13.60053500      4.05584200      7.71206500       2
O          11.70490000      6.02040900      7.53165700       2
H          12.06035500      6.96362600      7.83744300       2
O          11.83260800      4.16794100      5.89883800       2
H          10.80012100      4.37738300      5.93347500       2

