          14
 Energy =      0.00834800 a.u.  #Cluster:    1
C           8.67915900     17.80830500      6.10366000
C           8.65460100     19.12128600      6.59195600
C           9.82897100     19.86978000      6.54593700
C          10.98368800     19.29433500      6.01963400
C          10.92007100     17.97479500      5.55301200
N           9.79002800     17.24475900      5.59377000
H           9.84416700     20.89368100      6.91737200
H           7.78671500     17.17237400      6.11397600
H           7.73917800     19.54166300      6.99600200
H          11.91361300     19.85181100      5.97024900
H          11.79557300     17.47021500      5.12889300
O          11.16495700      0.31172000     10.68692000
H          10.25687600      0.27414000     10.39198700
H          11.54240900      1.07114200     10.24663400
          14
 Energy =      0.01329900 a.u.  #Cluster:    2
C           9.60600000     20.08631700      7.13658100
C           9.01422700     19.88356800      5.88399200
C           9.27517000     18.69264000      5.20878100
C          10.11149900     17.74433300      5.79514700
C          10.66363800     18.02409900      7.05086700
N          10.41407700     19.17299100      7.70777900
H           8.82996900     18.50479500      4.23178800
H           9.43960900     21.00333800      7.71530000
H           8.36700400     20.64116800      5.45136500
H          10.33335600     16.80749900      5.29199600
H          11.32965900     17.31816600      7.56245700
O          11.19346400     19.43469100     10.31742500
H          11.30176300     19.54806800      9.35380500
H          10.35057100     18.99833700     10.39272000
          14
 Energy =      0.01370400 a.u.  #Cluster:    3
C           9.02651000     19.35269600      7.42469100
C           8.61919400     19.24216100      6.08993200
C           9.53895100     18.78319700      5.14865100
C          10.82815400     18.44979000      5.55983400
C          11.15590600     18.58875700      6.91398600
N          10.27140700     19.03246400      7.82711500
H           9.25266800     18.68567700      4.10148700
H           8.34873600     19.70641800      8.21206600
H           7.60713200     19.50862700      5.79874500
H          11.56578300     18.08887000      4.84878800
H          12.15325100     18.34114800      7.29730000
O          10.81553800     19.74433300     10.40796300
H          10.61888500     19.09834100      9.70292200
H          10.98788600     20.54753000      9.92652500
          14
 Energy =      0.01411400 a.u.  #Cluster:    4
C           9.18920200     18.61523100      7.63646500
C           8.54390800     18.43088700      6.40792300
C           9.22486800     18.77071100      5.24028800
C          10.51902500     19.28036000      5.32825800
C          11.09332500     19.43399500      6.59593400
N          10.43948100     19.10810400      7.72698600
H           8.75014700     18.63885900      4.26803600
H           8.70670300     18.36561200      8.59014800
H           7.53472600     18.03063900      6.37015300
H          11.07411900     19.55312900      4.43528800
H          12.10804600     19.82847100      6.72852700
O          11.17489400     19.66654400     10.29801600
H          11.21151000     19.14653700      9.47254900
H          10.70005500     20.45092800     10.04142800
          14
 Energy =      0.01451500 a.u.  #Cluster:    5
C           8.80187400     19.05550900      7.39369600
C           8.53598700     18.95322600      6.02279100
C           9.60480700     18.76208900      5.14911200
C          10.89861500     18.67877200      5.66077100
C          11.07931200     18.79107700      7.04434400
N          10.04980500     18.97665000      7.89299800
H           9.43071700     18.67821200      4.07642100
H           8.00235700     19.20489700      8.12936600
H           7.51697300     19.02120500      5.65278300
H          11.75086700     18.52912100      5.00401400
H          12.07243100     18.73250300      7.50822600
O          10.92515900     19.50676500     10.42475700
H          10.49686900     18.94619800      9.74987000
H          10.95423200     20.36379200     10.01085100
          14
 Energy =      0.01751900 a.u.  #Cluster:    6
C           8.95255700     18.96322300      7.47397400
C           8.53736400     18.64592100      6.17511100
C           9.48957900     18.62510500      5.15763200
C          10.81815400     18.91852600      5.45965900
C          11.15119100     19.22593100      6.78429500
N          10.23507800     19.24674100      7.77115600
H           9.19811100     18.38211700      4.13586600
H           8.24997100     18.99684700      8.31585400
H           7.49447300     18.42220100      5.96927700
H          11.58179200     18.91076600      4.68712600
H          12.17898300     19.46630600      7.08351900
O          11.04820900     19.45098100     10.37412700
H          10.72587400     19.80971700      9.52525600
H          11.10867100     18.51563200     10.20715400
          14
 Energy =      0.01917300 a.u.  #Cluster:    7
C           9.79238200     17.63827300      7.23087900
C           8.94154600     17.96718500      6.16747000
C           9.14638700     19.17345400      5.50075100
C          10.18343600     20.00995500      5.90856500
C          10.98731900     19.60364400      6.98176800
N          10.79638000     18.44036600      7.63124500
H           8.50282200     19.45942100      4.66975300
H           9.67936200     16.70377600      7.79214200
H           8.14228500     17.29448600      5.87312900
H          10.36802800     20.95574800      5.40924900
H          11.81708400     20.21973800      7.34627500
O          10.32986900      0.30029100      9.79916900
H          10.85107000      0.15152300     10.58600500
H          10.60203600     -0.37784900      9.18360400
