%nproc=24
%mem=50GB
#p M062X/6-311+G(2d,p) nosymm em=GD3 counterpoise=2

Title Card Required

0 1
C           9.54909800     11.94159200     11.40795800      1
C           9.94576200     10.57099800     11.57160500      1
C          11.25803800     10.26035800     11.94457100      1
C          12.13145900     11.31325200     12.14934900      1
C          11.73071300     12.65917900     11.98990900      1
C          10.44275000     12.99570800     11.61504900      1
H          11.56274300      9.22186800     12.05753000      1
H          13.16078400     11.11029700     12.44314900      1
H          12.46331500     13.44570800     12.16967600      1
H          10.12339400     14.02710100     11.47977600      1
H           7.66445500     12.73157900     10.76455900      1
C           7.83993400     10.56747100     10.94119800      1
H           6.85648000     10.24461600     10.62577500      1
N           8.20656800     11.91167800     11.02453500      1
N           8.85117800      9.75210200     11.27836300      1
P           9.41381300      8.81612700      8.09069100      2
O           8.60824600     10.04554700      8.06453200      2
O           9.10923700      7.77639300      9.24323000      2
H           9.07446300      8.30175500     10.16682000      2
O           9.16512800      7.94790000      6.78003800      2
H           9.73589300      7.08973400      6.86635400      2
O          10.99585400      8.96347400      8.12532800      2
H          11.27348300      9.94603700      8.31307800      2




