          31
 Energy =    -1198.18266300 a.u.  Frame:     1 Step:     1 Geom:     1
C           7.11483700     12.78585500     15.69418100
C           6.02883900     12.68280100     14.81512700
C           4.73966200     12.70069300     15.34280600
C           4.56769800     12.81276500     16.72195200
C           5.70376100     12.91057700     17.53166300
N           6.95457500     12.91354300     17.02692600
H           3.87214100     12.60723200     14.68664000
H           8.14963900     12.74573400     15.33735900
H           6.19011300     12.55569400     13.74759300
H           3.57318000     12.79775200     17.15873000
H           5.62775100     12.97277200     18.62110100
P           6.70462400      9.36521300     16.81496100
O           5.53219000      9.93624300     17.48445800
O           8.07953300      9.31901200     17.60062200
H           8.30327400     10.28211800     17.98183600
O           6.47165300      7.84450900     16.42519800
H           7.39413500      7.41916600     16.18438900
O           7.15122800     10.10435400     15.47292100
H           6.33999700     10.18782300     14.83122200
O           4.86145700     10.28056400     13.72640900
H           4.72021800      9.41788400     13.34146400
H           4.17017000     10.36710300     14.41102600
O           9.17275800      6.89217900     15.88876500
H           9.50171800      7.10238600     16.77043300
H           9.48420000      7.61815400     15.33830300
O           8.71861000     11.75757100     18.72192400
H           8.08852900     11.82204200     19.43856100
H           8.38500100     12.41578800     18.05416000
O           3.10343500     10.39230600     15.91224500
H           2.60742000      9.60123300     16.11811600
H           3.86765800     10.35894900     16.51893700
          31
 Energy =    -1198.18100610 a.u.  Frame:     2 Step:     2 Geom:     2
C           5.23188900     12.49156100     15.02613400
C           4.22711100     11.55109200     14.78050300
C           3.50467100     11.04863400     15.86259200
C           3.81182100     11.48549200     17.14890000
C           4.83806000     12.42602700     17.31106700
N           5.52429100     12.93300700     16.26725100
H           2.72023100     10.30618500     15.70328700
H           5.84182400     12.90207900     14.21684500
H           4.03340100     11.19583300     13.77139100
H           3.29144500     11.08343500     18.01312700
H           5.14328800     12.77787600     18.30263700
P           7.35457500      9.92203600     16.77918200
O           6.14629100     10.11227800     17.58741900
O           8.61846800     10.82414100     17.09118200
H           8.38413900     11.83811600     16.88850900
O           7.92173300      8.44858900     16.92738300
H           8.89646000      8.42450100     16.55624200
O           7.17167500     10.17322300     15.21267900
H           6.28321700      9.74588100     14.89174000
O           4.75438600      8.82484200     14.36659500
H           4.33609500      8.67184300     15.23600600
H           5.01182600      7.95688800     14.06321600
O          10.65336600      8.65470000     15.94603400
H          10.91095500      9.31781200     16.59693900
H          10.50539200      9.15525600     15.13788600
O           8.15276900     13.47314700     16.44562200
H           8.16037100     13.44266100     15.48944000
H           7.18986700     13.60312400     16.66216600
O           3.85002200      8.41463600     17.00033600
H           4.10300400      7.59290500     17.41905400
H           4.52736300      9.05221300     17.29866000
          31
 Energy =    -1198.17730710 a.u.  Frame:     3 Step:     3 Geom:     3
C           5.72991000     11.96225700     14.50533000
C           4.48508200     11.34058300     14.68247000
C           3.72407700     11.67646000     15.79871300
C           4.21844000     12.61412200     16.70596800
C           5.47216500     13.18309600     16.46161100
N           6.20763000     12.87559800     15.37445700
H           2.75804000     11.19714200     15.96565000
H           6.38057200     11.71939200     13.65683300
H           4.13970700     10.58448700     13.98158400
H           3.64669100     12.90105700     17.58116200
H           5.92009200     13.90536700     17.15145900
P           7.43713300      9.78580900     16.80600600
O           6.84414600     10.51924000     17.92681100
O           8.82682600     10.27486400     16.21905800
H           8.80141800     11.31684800     16.05176900
O           7.73500800      8.27339800     17.17886700
H           8.39614500      7.88276400     16.47076300
O           6.55184100      9.74904600     15.47847900
H           5.59696100      9.40562200     15.70148400
O           3.89372400      8.87591700     16.12736800
H           3.83275800      9.28742300     17.01421800
H           3.91279400      7.93558600     16.30275200
O           9.66686600      7.47496600     15.14389800
H           9.24137000      7.86205700     14.37207200
H          10.31948900      8.13218900     15.41189200
O           8.88284100     13.00658800     15.79504200
H           8.01668000     13.16913200     15.33725700
H           8.74833700     13.35658000     16.67514200
O           4.01488200     10.06873400     18.62303300
H           3.72231200     10.97899500     18.62685200
H           4.98607000     10.13470200     18.57202300
          31
 Energy =    -1198.17892380 a.u.  Frame:     4 Step:     4 Geom:     4
C           6.57972500     13.24890000     15.69785200
C           5.43555100     13.00688900     14.92922800
C           4.28541100     12.54888700     15.57116700
C           4.30838600     12.34633100     16.94899800
C           5.49368300     12.61475900     17.64713000
N           6.60411000     13.07364700     17.03373300
H           3.37724500     12.33569800     15.00450100
H           7.51812900     13.58573400     15.24363300
H           5.45269000     13.17321400     13.85799500
H           3.43722100     11.95881100     17.47056500
H           5.57393800     12.44883600     18.72675900
P           6.99492100      9.50174300     16.67830600
O           5.78664800     10.14704500     17.20939700
O           8.35331200      9.65135800     17.47798100
H           8.50257300     10.66501600     17.73716200
O           6.81472000      7.92873400     16.59055400
H           7.72083400      7.50991200     16.28031200
O           7.44425200      9.98380700     15.22629000
H           6.61699700     10.01141500     14.59726100
O           5.14481000     10.15265900     13.52858000
H           5.04288300     11.07086100     13.28886500
H           4.43715900      9.98914300     14.18221500
O           9.44489300      7.04194800     15.70529300
H           9.51729100      7.60755800     14.92920200
H           9.94585900      7.50219200     16.38778400
O           8.81675300     12.23466700     18.37294500
H           8.35772500     12.24030100     19.21081000
H           8.25354100     12.80695100     17.78915600
O           3.34686100      9.83070800     15.63199800
H           3.12835100      8.90295400     15.72481300
H           4.08353300      9.96933200     16.25954300
          31
 Energy =    -1198.17707900 a.u.  Frame:     5 Step:     5 Geom:     5
C           7.01960100     13.45074400     16.54890200
C           6.16713700     13.67527500     15.46393800
C           4.84821200     13.22574700     15.54761400
C           4.42040300     12.58189700     16.70501600
C           5.33616100     12.40303300     17.75349400
N           6.61191900     12.83486500     17.67646200
H           4.16158000     13.36540600     14.70964000
H           8.06672000     13.76925400     16.53232500
H           6.52232800     14.19668600     14.58168600
H           3.40819500     12.19531800     16.79009100
H           5.05557200     11.89228000     18.68368100
P           6.55730600      9.29139700     16.53632600
O           5.42413500     10.22358400     16.60518200
O           7.34511500      8.98044600     17.87453500
H           7.74702200      9.88162200     18.25559200
O           6.09716600      7.85641100     16.05101000
H           6.92399900      7.21613900     16.08343700
O           7.74580500      9.73360300     15.56790900
H           7.36237300     10.23192900     14.74090300
O           6.66503900     11.23808600     13.40059800
H           5.70429200     11.11742300     13.53118300
H           6.82543000     12.14230800     13.66902000
O           8.53059400      6.27999900     16.23718500
H           8.73356300      6.48668700     17.15599000
H           9.11318900      6.84973800     15.72442000
O           8.50473500     11.31002700     18.87045200
H           9.09091400     11.56662800     18.15938100
H           7.77604700     11.98253700     18.82590700
O           3.99971500     10.89463800     14.16842800
H           3.66165000     10.05949700     13.84481100
H           4.35408800     10.68680600     15.05490100
          31
 Energy =    -1198.17036140 a.u.  Frame:     6 Step:     6 Geom:     6
C           5.37565700     12.66365500     15.18838200
C           4.40269600     12.39939900     16.16010200
C           4.69750500     12.69576300     17.49128900
C           5.92556800     13.27365300     17.80807700
C           6.83759700     13.51560900     16.77418300
N           6.56866000     13.21895000     15.48709200
H           3.98090800     12.45915300     18.27650800
H           5.21628200     12.41587600     14.13592400
H           3.45606000     11.94095800     15.88784400
H           6.18769900     13.49882200     18.83649400
H           7.82793400     13.94081000     16.96800300
P           7.10456300      9.69345800     16.64962300
O           5.91368300     10.46747100     16.27786600
O           8.51416500     10.41483000     16.54544500
H           8.55325400     10.98543600     15.65878800
O           7.06153700      9.24482800     18.16972300
H           7.99485200      8.84395700     18.41930800
O           7.37316200      8.37148600     15.80155100
H           6.48300000      7.83775700     15.71125300
O           4.85129600      7.00486100     15.58494000
H           4.28566000      7.75783100     15.33087700
H           4.56375600      6.78019500     16.46947900
O           9.74678400      8.20122700     18.60125100
H           9.79352100      7.59037400     17.85840200
H          10.20458300      8.99138400     18.29236500
O           8.67372100     12.01284800     14.26329300
H           8.18517900     11.57095900     13.57172800
H           8.08047000     12.75684700     14.54517300
O           3.54568100      9.41574000     15.01547300
H           3.77070800      9.60504000     14.10584800
H           4.25386400      9.84083900     15.53374100
          31
 Energy =    -1198.18577640 a.u.  Frame:     7 Step:     7 Geom:     7
C           4.93384700     12.55971000     17.35672200
C           3.67341900     13.14797900     17.18667300
C           3.56345000     14.53240600     17.28373100
C           4.70424300     15.29118900     17.54587100
C           5.92658200     14.62945900     17.70036300
N           6.03765200     13.28940700     17.60574100
H           2.59685800     15.02001200     17.15724500
H           5.07691400     11.46888700     17.29443200
H           2.80400800     12.52780900     16.98360200
H           4.64796100     16.37252300     17.62923700
H           6.85539000     15.17289700     17.90791900
P           6.98977700      8.79618300     16.23386100
O           5.84282200      9.62052000     15.83933100
O           7.79377000      9.21802400     17.53280600
H           8.04566700     10.24163000     17.47192400
O           6.55075100      7.30930300     16.56644800
H           7.36231800      6.81639700     16.99900200
O           8.16627000      8.68550500     15.16673900
H           7.76867800      8.46819400     14.23066600
O           6.99651400      8.06176600     12.62724600
H           6.21625500      8.64888200     12.65178700
H           6.63011800      7.18013400     12.68434000
O           8.96554400      6.18694500     17.76827100
H           9.60162700      6.43813000     17.09077600
H           9.05302900      6.86721200     18.44532900
O           8.41801400     11.91856800     17.48045600
H           8.43494200     12.19449600     16.56395000
H           7.61377700     12.36805800     17.84338600
O           4.80115200      9.70358700     13.07875100
H           5.02418200     10.60946400     12.86766900
H           4.96447200      9.63474200     14.03575300
