          31
 G =       -0.649229 Gcorr = 0.153264 a.u. Nimag =   0 Frame:     1 Step:     1 Geom:     1
C           7.01960100     13.45074400     16.54890200
C           6.16713700     13.67527500     15.46393800
C           4.84821200     13.22574700     15.54761400
C           4.42040300     12.58189700     16.70501600
C           5.33616100     12.40303300     17.75349400
N           6.61191900     12.83486500     17.67646200
H           4.16158000     13.36540600     14.70964000
H           8.06672000     13.76925400     16.53232500
H           6.52232800     14.19668600     14.58168600
H           3.40819500     12.19531800     16.79009100
H           5.05557200     11.89228000     18.68368100
P           6.55730600      9.29139700     16.53632600
O           5.42413500     10.22358400     16.60518200
O           7.34511500      8.98044600     17.87453500
H           7.74702200      9.88162200     18.25559200
O           6.09716600      7.85641100     16.05101000
H           6.92399900      7.21613900     16.08343700
O           7.74580500      9.73360300     15.56790900
H           7.36237300     10.23192900     14.74090300
O           6.66503900     11.23808600     13.40059800
H           5.70429200     11.11742300     13.53118300
H           6.82543000     12.14230800     13.66902000
O           8.53059400      6.27999900     16.23718500
H           8.73356300      6.48668700     17.15599000
H           9.11318900      6.84973800     15.72442000
O           8.50473500     11.31002700     18.87045200
H           9.09091400     11.56662800     18.15938100
H           7.77604700     11.98253700     18.82590700
O           3.99971500     10.89463800     14.16842800
H           3.66165000     10.05949700     13.84481100
H           4.35408800     10.68680600     15.05490100
          31
 G =       -0.650775 Gcorr = 0.153163 a.u. Nimag =   0 Frame:     2 Step:     2 Geom:     2
C           7.05708700     13.06865100     16.42705400
C           6.30317000     13.13217800     15.25139600
C           4.93909400     12.84908700     15.31753200
C           4.37385800     12.50101100     16.54198200
C           5.19971600     12.45396100     17.67320000
N           6.51410500     12.74926800     17.62028400
H           4.32601300     12.88122400     14.41471900
H           8.13349600     13.26060200     16.42775400
H           6.77547300     13.36688300     14.30067600
H           3.32255000     12.23906300     16.61603900
H           4.81444200     12.15310900     18.65360700
P           6.63710300      9.33561000     16.62222400
O           5.30757800      9.92830900     16.79716300
O           7.51423600      9.06029400     17.91192700
H           7.74974900      9.98252900     18.37928100
O           6.54647500      7.90726100     15.93938700
H           7.45815000      7.41576900     16.06523900
O           7.65122200     10.19090100     15.73304900
H           7.15845100     10.55984800     14.89883300
O           6.24281800     11.05840200     13.35761600
H           5.32192400     10.90310100     13.64440000
H           6.40245100     10.40183100     12.68294200
O           9.13010900      6.69912500     16.51110400
H           9.71227100      7.43133000     16.28601900
H           9.02764700      6.75758600     17.46807300
O           8.31077200     11.41898300     19.11766900
H           8.97101100     11.73635800     18.50238000
H           7.54214700     12.03284800     18.96431300
O           3.71471300     10.39718500     14.40271100
H           3.38638000      9.51962000     14.21164300
H           4.13580200     10.30808800     15.27981300
          31
 G =       -0.651079 Gcorr = 0.153360 a.u. Nimag =   0 Frame:     3 Step:     3 Geom:     3
C           7.25186700     12.92052600     16.11208300
C           6.45225400     12.91990900     14.96173300
C           5.06743800     12.89960800     15.11214300
C           4.52004800     12.87301800     16.39424500
C           5.38703000     12.87458300     17.49164000
N           6.72830200     12.91422400     17.35467600
H           4.41623100     12.88383800     14.23603100
H           8.34545300     12.90476800     16.05254100
H           6.90368500     12.89967600     13.97298400
H           3.44406900     12.82542600     16.53582100
H           5.01251100     12.82642500     18.51823300
P           6.59900400      9.40901800     16.72901900
O           5.27920800      9.92850400     17.09949600
O           7.70137100      9.26381700     17.85743900
H           7.79779200     10.18111500     18.37930700
O           6.50362800      7.93851600     16.13967100
H           7.46203900      7.52483700     16.12440400
O           7.39145300     10.27125900     15.64472300
H           6.78893400     10.43122800     14.81506400
O           5.67369500     10.65567900     13.35770800
H           4.81755100     10.67991500     13.82759200
H           5.65895100      9.83975500     12.86131600
O           9.26075500      7.00602100     16.27684400
H           9.70052300      7.77810200     15.90593600
H           9.33294700      7.12495000     17.23100500
O           7.97142900     11.57087500     19.34692000
H           7.16652000     11.57413500     19.86353600
H           7.82772800     12.29673200     18.68135300
O           3.37594700     10.56276500     14.96585800
H           2.85988700      9.75807000     14.94542500
H           3.94175200     10.46271900     15.75527900
          31
 G =       -0.648561 Gcorr = 0.145489 a.u. Nimag =   0 Frame:     4 Step:     5 Geom:     5
C           4.93384700     12.55971000     17.35672200
C           3.67341900     13.14797900     17.18667300
C           3.56345000     14.53240600     17.28373100
C           4.70424300     15.29118900     17.54587100
C           5.92658200     14.62945900     17.70036300
N           6.03765200     13.28940700     17.60574100
H           2.59685800     15.02001200     17.15724500
H           5.07691400     11.46888700     17.29443200
H           2.80400800     12.52780900     16.98360200
H           4.64796100     16.37252300     17.62923700
H           6.85539000     15.17289700     17.90791900
P           6.98977700      8.79618300     16.23386100
O           5.84282200      9.62052000     15.83933100
O           7.79377000      9.21802400     17.53280600
H           8.04566700     10.24163000     17.47192400
O           6.55075100      7.30930300     16.56644800
H           7.36231800      6.81639700     16.99900200
O           8.16627000      8.68550500     15.16673900
H           7.76867800      8.46819400     14.23066600
O           6.99651400      8.06176600     12.62724600
H           6.21625500      8.64888200     12.65178700
H           6.63011800      7.18013400     12.68434000
O           8.96554400      6.18694500     17.76827100
H           9.60162700      6.43813000     17.09077600
H           9.05302900      6.86721200     18.44532900
O           8.41801400     11.91856800     17.48045600
H           8.43494200     12.19449600     16.56395000
H           7.61377700     12.36805800     17.84338600
O           4.80115200      9.70358700     13.07875100
H           5.02418200     10.60946400     12.86766900
H           4.96447200      9.63474200     14.03575300
          31
 G =       -0.648586 Gcorr = 0.149879 a.u. Nimag =   0 Frame:     5 Step:     6 Geom:     6
C           5.37565700     12.66365500     15.18838200
C           4.40269600     12.39939900     16.16010200
C           4.69750500     12.69576300     17.49128900
C           5.92556800     13.27365300     17.80807700
C           6.83759700     13.51560900     16.77418300
N           6.56866000     13.21895000     15.48709200
H           3.98090800     12.45915300     18.27650800
H           5.21628200     12.41587600     14.13592400
H           3.45606000     11.94095800     15.88784400
H           6.18769900     13.49882200     18.83649400
H           7.82793400     13.94081000     16.96800300
P           7.10456300      9.69345800     16.64962300
O           5.91368300     10.46747100     16.27786600
O           8.51416500     10.41483000     16.54544500
H           8.55325400     10.98543600     15.65878800
O           7.06153700      9.24482800     18.16972300
H           7.99485200      8.84395700     18.41930800
O           7.37316200      8.37148600     15.80155100
H           6.48300000      7.83775700     15.71125300
O           4.85129600      7.00486100     15.58494000
H           4.28566000      7.75783100     15.33087700
H           4.56375600      6.78019500     16.46947900
O           9.74678400      8.20122700     18.60125100
H           9.79352100      7.59037400     17.85840200
H          10.20458300      8.99138400     18.29236500
O           8.67372100     12.01284800     14.26329300
H           8.18517900     11.57095900     13.57172800
H           8.08047000     12.75684700     14.54517300
O           3.54568100      9.41574000     15.01547300
H           3.77070800      9.60504000     14.10584800
H           4.25386400      9.84083900     15.53374100
          31
 G =       -0.649703 Gcorr = 0.152606 a.u. Nimag =   0 Frame:     6 Step:     7 Geom:     7
C           6.85165900     12.28886700     14.72662500
C           5.54426500     12.03926100     14.28410200
C           4.47965400     12.47586500     15.06765200
C           4.74070900     13.14272400     16.26507600
C           6.07255300     13.34582300     16.63959700
N           7.10884500     12.94120700     15.87821900
H           3.45328700     12.28256400     14.75129800
H           7.72704600     11.94806800     14.16113000
H           5.36751600     11.48318900     13.36660900
H           3.93324800     13.49994100     16.89401500
H           6.33632200     13.84110600     17.57945600
P           6.88534900      9.51161800     17.01483500
O           6.05159400     10.27849700     17.94353700
O           8.46291500      9.63193100     17.12255900
H           8.74569000     10.64801300     17.16630900
O           6.64970500      7.94994900     17.15901200
H           7.44443600      7.45213100     16.69885500
O           6.66656900      9.85267700     15.47114500
H           5.65778900      9.77881300     15.23386200
O           3.86466100      9.72457800     14.85585100
H           3.52593900     10.05370300     15.71423200
H           3.59722200      8.80629400     14.83155500
O           9.03478200      6.81970400     15.91595000
H           9.08001900      7.38312000     15.13668100
H           9.63814900      7.23254600     16.54458900
O           9.30968300     12.25796200     17.30293600
H           8.89462800     12.55151200     18.11342800
H           8.78247100     12.70379000     16.58922400
O           3.17350300     10.59488700     17.39093700
H           3.11846300     11.54646100     17.46744800
H           4.06134000     10.38321100     17.73329800
          31
 G =       -0.651072 Gcorr = 0.153367 a.u. Nimag =   0 Frame:     7 Step:     8 Geom:     8
C           5.74649600     12.99557200     17.41606000
C           4.47597800     12.73251200     16.89414300
C           4.34962400     12.52145000     15.52168600
C           5.48514000     12.57161100     14.71623200
C           6.72179600     12.84184100     15.31652100
N           6.84764500     13.06553700     16.64024300
H           3.37297700     12.29894700     15.08747100
H           5.90704300     13.14100000     18.48821500
H           3.60953600     12.66765700     17.54615500
H           5.41897100     12.37010900     13.64999800
H           7.65060500     12.86275900     14.73637400
P           6.92299500      9.50334300     16.71283100
O           5.87284500     10.02505600     17.59248100
O           8.43351900      9.64004300     17.17015100
H           8.63697200     10.64803000     17.42680400
O           6.76666500      7.94115400     16.48019300
H           7.65390700      7.57709000     16.06828700
O           6.98761500     10.16452800     15.26179300
H           6.05146600     10.12340500     14.81537000
O           4.36581100      9.99560200     14.06972800
H           3.83488400     10.07829700     14.88551200
H           4.23411500      9.09473600     13.78063100
O           9.37048000      7.18292700     15.40923200
H           9.47469700      7.88274800     14.75630000
H           9.86088200      7.49758000     16.17751100
O           9.05119800     12.21101000     17.95657400
H           8.59121200     12.28293400     18.79214600
H           8.51380300     12.78032300     17.34193300
O           3.12490500     10.13290300     16.58332100
H           2.77394100      9.31955200     16.94336700
H           4.00228200     10.21975900     17.00275700
          31
 G =       -0.649249 Gcorr = 0.152971 a.u. Nimag =   0 Frame:     8 Step:    10 Geom:    10
C           6.57972500     13.24890000     15.69785200
C           5.43555100     13.00688900     14.92922800
C           4.28541100     12.54888700     15.57116700
C           4.30838600     12.34633100     16.94899800
C           5.49368300     12.61475900     17.64713000
N           6.60411000     13.07364700     17.03373300
H           3.37724500     12.33569800     15.00450100
H           7.51812900     13.58573400     15.24363300
H           5.45269000     13.17321400     13.85799500
H           3.43722100     11.95881100     17.47056500
H           5.57393800     12.44883600     18.72675900
P           6.99492100      9.50174300     16.67830600
O           5.78664800     10.14704500     17.20939700
O           8.35331200      9.65135800     17.47798100
H           8.50257300     10.66501600     17.73716200
O           6.81472000      7.92873400     16.59055400
H           7.72083400      7.50991200     16.28031200
O           7.44425200      9.98380700     15.22629000
H           6.61699700     10.01141500     14.59726100
O           5.14481000     10.15265900     13.52858000
H           5.04288300     11.07086100     13.28886500
H           4.43715900      9.98914300     14.18221500
O           9.44489300      7.04194800     15.70529300
H           9.51729100      7.60755800     14.92920200
H           9.94585900      7.50219200     16.38778400
O           8.81675300     12.23466700     18.37294500
H           8.35772500     12.24030100     19.21081000
H           8.25354100     12.80695100     17.78915600
O           3.34686100      9.83070800     15.63199800
H           3.12835100      8.90295400     15.72481300
H           4.08353300      9.96933200     16.25954300
          31
 G =       -0.651095 Gcorr = 0.153344 a.u. Nimag =   0 Frame:     9 Step:    11 Geom:    11
C           7.11483700     12.78585500     15.69418100
C           6.02883900     12.68280100     14.81512700
C           4.73966200     12.70069300     15.34280600
C           4.56769800     12.81276500     16.72195200
C           5.70376100     12.91057700     17.53166300
N           6.95457500     12.91354300     17.02692600
H           3.87214100     12.60723200     14.68664000
H           8.14963900     12.74573400     15.33735900
H           6.19011300     12.55569400     13.74759300
H           3.57318000     12.79775200     17.15873000
H           5.62775100     12.97277200     18.62110100
P           6.70462400      9.36521300     16.81496100
O           5.53219000      9.93624300     17.48445800
O           8.07953300      9.31901200     17.60062200
H           8.30327400     10.28211800     17.98183600
O           6.47165300      7.84450900     16.42519800
H           7.39413500      7.41916600     16.18438900
O           7.15122800     10.10435400     15.47292100
H           6.33999700     10.18782300     14.83122200
O           4.86145700     10.28056400     13.72640900
H           4.72021800      9.41788400     13.34146400
H           4.17017000     10.36710300     14.41102600
O           9.17275800      6.89217900     15.88876500
H           9.50171800      7.10238600     16.77043300
H           9.48420000      7.61815400     15.33830300
O           8.71861000     11.75757100     18.72192400
H           8.08852900     11.82204200     19.43856100
H           8.38500100     12.41578800     18.05416000
O           3.10343500     10.39230600     15.91224500
H           2.60742000      9.60123300     16.11811600
H           3.86765800     10.35894900     16.51893700
          31
 G =       -0.651066 Gcorr = 0.153374 a.u. Nimag =   0 Frame:    10 Step:    14 Geom:    14
C           6.55495800     12.69406600     14.94140400
C           5.30390900     12.27156200     14.47329200
C           4.22607700     12.27376100     15.35588700
C           4.42285000     12.68649800     16.67312200
C           5.70316000     13.09281900     17.06234000
N           6.74740000     13.11222900     16.20878700
H           3.24120200     11.93667400     15.02683600
H           7.44280800     12.68338600     14.30002500
H           5.18529200     11.91587800     13.45287300
H           3.60449800     12.66726300     17.38725100
H           5.91970200     13.39979200     18.08965000
P           7.06162800      9.60673000     16.76826800
O           6.03804100     10.18880300     17.64143900
O           8.58598800      9.89321400     17.09028500
H           8.73671800     10.93716500     17.19452000
O           6.99473000      8.02102700     16.76652500
H           7.87611200      7.65262900     16.34549100
O           6.98869700     10.05575900     15.23854300
H           6.03069700      9.89809700     14.87191300
O           4.31271800      9.57027800     14.27511200
H           4.22109700      8.63156600     14.12413800
H           3.83137200      9.73940200     15.10822300
O           9.56690500      7.26483100     15.62707400
H           9.58481700      7.86930200     14.87785400
H          10.08496100      7.71127900     16.30686400
O           9.07762000     12.57986300     17.47544100
H           8.46812600     13.02450500     16.82615300
H           8.66417700     12.74243800     18.32250200
O           3.23088200      9.99890300     16.82853600
H           2.95694600      9.22740300     17.32255000
H           4.12591800     10.19289300     17.16712100
          31
 G =       -0.651066 Gcorr = 0.153374 a.u. Nimag =   0 Frame:    11 Step:    15 Geom:    15
C           6.77509400     12.85894100     15.40060400
C           5.60995000     12.56561400     14.68013000
C           4.40287000     12.47988100     15.37032600
C           4.38944600     12.67979400     16.75016300
C           5.59609600     12.96781700     17.39585800
N           6.76564900     13.07183100     16.73208700
H           3.47911400     12.23842300     14.84091600
H           7.75528300     12.90787700     14.91419900
H           5.65298500     12.37388100     13.61093500
H           3.46541900     12.58753300     17.31383800
H           5.64755900     13.10628700     18.47969000
P           6.92477300      9.51114800     16.77783500
O           5.78274000      9.99603600     17.55856800
O           8.38109500      9.68103400     17.37774100
H           8.53049700     10.68955900     17.66703800
O           6.83248500      7.94846700     16.51647900
H           7.76443300      7.61193600     16.18765000
O           7.10938200     10.19077600     15.34571100
H           6.22147200     10.13092100     14.81166700
O           4.61830700      9.96969500     13.90698700
H           4.53654900      9.06916300     13.59905300
H           4.01095300     10.03099000     14.66969500
O           9.54367100      7.26796100     15.69471500
H           9.95103200      7.58288600     16.50999500
H           9.69355500      7.97881700     15.06282700
O           8.84878800     12.25560100     18.25174300
H           8.36244200     12.81886100     17.59086300
H           8.30424200     12.30576100     19.03650300
O           3.14245100     10.05179600     16.29217000
H           2.77815000      9.22673600     16.60972000
H           3.97352300     10.15399800     16.79432000
          31
 G =       -0.650811 Gcorr = 0.153128 a.u. Nimag =   0 Frame:    12 Step:    16 Geom:    16
C           5.26794800     12.67452100     17.56998700
C           4.14079000     12.31286500     16.81991200
C           4.21585800     12.37598800     15.43057400
C           5.40505100     12.78775200     14.82936200
C           6.48253000     13.13734900     15.64875200
N           6.41258500     13.09583000     16.99560700
H           3.36014000     12.08760400     14.81696000
H           5.27485400     12.61073200     18.66362900
H           3.24030200     11.95999300     17.31383300
H           5.50159000     12.80673500     13.74661500
H           7.44378100     13.44654300     15.22933300
P           6.91282600      9.57943400     16.78676500
O           5.61188500     10.03591800     17.28543100
O           8.18396900      9.77364200     17.71141800
H           8.35840600     10.80964700     17.85484000
O           6.90828700      8.01835200     16.50800600
H           7.89407000      7.69157800     16.40818200
O           7.40371300     10.27181200     15.43387400
H           6.61208100     10.33693100     14.76756700
O           5.18324600     10.28220500     13.57824300
H           5.25571300      9.48927700     13.05123700
H           4.44847800     10.10463900     14.19698900
O           9.73181400      7.33067900     16.37399900
H          10.04956600      8.03550200     15.80136200
H           9.92457200      7.63967400     17.26677500
O           8.81522700     12.44927100     18.02020200
H           7.92871100     12.90220200     18.01552300
H           9.17527600     12.66324900     17.16013700
O           3.29376000      9.64111600     15.56392200
H           3.10739100      8.71283900     15.69805100
H           3.97558200      9.84613900     16.23293500
          31
 G =       -0.649716 Gcorr = 0.152592 a.u. Nimag =   0 Frame:    13 Step:    17 Geom:    17
C           5.72991000     11.96225700     14.50533000
C           4.48508200     11.34058300     14.68247000
C           3.72407700     11.67646000     15.79871300
C           4.21844000     12.61412200     16.70596800
C           5.47216500     13.18309600     16.46161100
N           6.20763000     12.87559800     15.37445700
H           2.75804000     11.19714200     15.96565000
H           6.38057200     11.71939200     13.65683300
H           4.13970700     10.58448700     13.98158400
H           3.64669100     12.90105700     17.58116200
H           5.92009200     13.90536700     17.15145900
P           7.43713300      9.78580900     16.80600600
O           6.84414600     10.51924000     17.92681100
O           8.82682600     10.27486400     16.21905800
H           8.80141800     11.31684800     16.05176900
O           7.73500800      8.27339800     17.17886700
H           8.39614500      7.88276400     16.47076300
O           6.55184100      9.74904600     15.47847900
H           5.59696100      9.40562200     15.70148400
O           3.89372400      8.87591700     16.12736800
H           3.83275800      9.28742300     17.01421800
H           3.91279400      7.93558600     16.30275200
O           9.66686600      7.47496600     15.14389800
H           9.24137000      7.86205700     14.37207200
H          10.31948900      8.13218900     15.41189200
O           8.88284100     13.00658800     15.79504200
H           8.01668000     13.16913200     15.33725700
H           8.74833700     13.35658000     16.67514200
O           4.01488200     10.06873400     18.62303300
H           3.72231200     10.97899500     18.62685200
H           4.98607000     10.13470200     18.57202300
          31
 G =       -0.650771 Gcorr = 0.153168 a.u. Nimag =   0 Frame:    14 Step:    19 Geom:    19
C           5.52312700     12.71552400     15.12813000
C           4.47998600     11.88559800     14.70673900
C           3.61363300     11.36321500     15.66685300
C           3.81914700     11.67072000     17.00962100
C           4.89210300     12.50538000     17.35032200
N           5.71888900     13.03243600     16.42502100
H           2.79538600     10.70445400     15.36942200
H           6.24298400     13.13456300     14.41982600
H           4.36475300     11.62776300     13.65685600
H           3.18324200     11.24791800     17.78177200
H           5.11972900     12.75148500     18.39328600
P           7.25428300      9.84846500     16.84224600
O           5.98978000     10.07513100     17.54885900
O           8.54632200     10.61292400     17.34700300
H           8.40903100     11.65638200     17.21836300
O           7.68947300      8.32520800     16.91278700
H           8.69177900      8.24844900     16.63347000
O           7.24722900     10.23836200     15.29355000
H           6.36659700      9.91087100     14.85515600
O           4.83249000      9.16232400     14.11316900
H           4.31867300      8.97899000     14.92348200
H           5.05290000      8.30145700     13.76379400
O          10.51124600      8.37563600     16.20998800
H          10.75832100      8.95722700     16.93830100
H          10.48255800      8.95235800     15.44035100
O           8.34850200     13.33718600     16.90945100
H           8.45955300     13.38825600     15.96068900
H           7.37951800     13.52680400     17.03648600
O           3.64057500      8.63096900     16.60763800
H           3.78465700      7.76109800     16.97771900
H           4.33354000      9.18286500     17.01967400
          31
 G =       -0.650815 Gcorr = 0.153123 a.u. Nimag =   0 Frame:    15 Step:    20 Geom:    20
C           5.23188900     12.49156100     15.02613400
C           4.22711100     11.55109200     14.78050300
C           3.50467100     11.04863400     15.86259200
C           3.81182100     11.48549200     17.14890000
C           4.83806000     12.42602700     17.31106700
N           5.52429100     12.93300700     16.26725100
H           2.72023100     10.30618500     15.70328700
H           5.84182400     12.90207900     14.21684500
H           4.03340100     11.19583300     13.77139100
H           3.29144500     11.08343500     18.01312700
H           5.14328800     12.77787600     18.30263700
P           7.35457500      9.92203600     16.77918200
O           6.14629100     10.11227800     17.58741900
O           8.61846800     10.82414100     17.09118200
H           8.38413900     11.83811600     16.88850900
O           7.92173300      8.44858900     16.92738300
H           8.89646000      8.42450100     16.55624200
O           7.17167500     10.17322300     15.21267900
H           6.28321700      9.74588100     14.89174000
O           4.75438600      8.82484200     14.36659500
H           4.33609500      8.67184300     15.23600600
H           5.01182600      7.95688800     14.06321600
O          10.65336600      8.65470000     15.94603400
H          10.91095500      9.31781200     16.59693900
H          10.50539200      9.15525600     15.13788600
O           8.15276900     13.47314700     16.44562200
H           8.16037100     13.44266100     15.48944000
H           7.18986700     13.60312400     16.66216600
O           3.85002200      8.41463600     17.00033600
H           4.10300400      7.59290500     17.41905400
H           4.52736300      9.05221300     17.29866000
