          29
 Energy =    -1176.13456600 a.u.  Frame:     1 Step:     1 Geom:     1
C           5.84061700      5.83918100     11.05427300
C           6.57167000      5.26503400     12.09299000
C           4.93966300      6.40997800     13.02680800
N           4.80033200      6.55047000     11.65174200
H           4.15493200      7.16407000     11.16739900
H           5.98258800      5.80451500      9.99359100
H           7.43811700      4.63935200     12.05214700
H           4.29275300      6.87983100     13.74970700
N           6.00085200      5.62625400     13.30753700
P           7.06843200      9.22675800     12.94043100
O           5.61777700      9.01222200     13.01296400
O           7.92038700      9.01653500     14.24700300
H           7.87523300      7.97625400     14.51947400
O           7.85733700      8.35311400     11.87337900
H           7.27342000      8.22227300     11.02473000
O           7.35059900     10.74946200     12.55166900
H           8.34704200     10.94859000     12.69286300
O           3.59101300      8.57285800     10.19331800
H           3.58731300      9.35358300     10.79979800
H           2.75881200      8.60010300      9.73180800
O           3.62573000     10.67943500     11.88540600
H           4.22112300     10.19500600     12.49385300
H           4.15646200     11.42836100     11.60687400
O           6.32978500      8.21173000      9.41429700
H           6.56363200      9.00716400      8.93908500
H           5.39659700      8.32291600      9.64672300
O           7.93669000      6.37665800     14.95483400
H           8.43432400      5.98302500     14.23330000
H           7.01676900      6.02527500     14.79201300
          29
 Energy =    -1176.13713840 a.u.  Frame:     2 Step:     2 Geom:     2
C           4.48369000      5.43284400     11.48947500
C           5.41592000      4.97754300     12.42329500
C           4.71533900      6.94020000     13.13345700
N           4.04300100      6.67472000     11.94995600
H           3.43236900      7.30598500     11.43784000
H           4.10814900      4.98380200     10.59537400
H           5.97839700      4.06489600     12.44175500
H           4.57642500      7.83688600     13.72087200
N           5.54735600      5.92048100     13.43116800
P           7.61549800      9.41780700     12.71068200
O           6.14747800      9.40299800     12.78679400
O           8.43155100      9.06886400     14.01295100
H           8.08808800      8.13171000     14.38650500
O           8.28214800      8.49175200     11.60856600
H           7.55877000      8.16036800     10.93745300
O           8.12120300     10.88796300     12.36108100
H           9.15083400     10.88278600     12.36193300
O           3.67243900      8.51085500     10.12042500
H           3.93197300      9.39889500     10.47556700
H           3.11131000      8.69084500      9.37243200
O           4.41556300     10.89724600     11.10308100
H           4.95702300     10.52220500     11.82902100
H           5.05604200     11.37714500     10.57377300
O           6.34072300      7.36789000      9.86927400
H           6.26271900      6.53465700     10.34283200
H           5.46630900      7.77544500      9.94487100
O           7.50021700      6.71841400     15.13437000
H           6.75514500      6.98626200     15.67244100
H           7.07432400      6.15854500     14.43277400
          29
 Energy =    -1176.13434580 a.u.  Frame:     3 Step:     3 Geom:     3
C           5.43546500      5.85496400     11.22288300
C           6.13730200      5.26493900     12.27342800
C           4.75988900      6.72601200     13.17538500
N           4.55485100      6.76838700     11.80287900
H           3.97191100      7.42541900     11.29803400
H           5.50282200      5.71010800     10.16434200
H           6.90607500      4.52008300     12.24906900
H           4.24149100      7.35288400     13.88020400
N           5.70545000      5.81106100     13.47516200
P           7.42051000      9.02574500     12.67534900
O           5.98154600      9.10846700     12.96482500
O           8.40274300      8.71633200     13.86756900
H           8.01507700      7.87370500     14.41082900
O           7.87193000      7.96141200     11.58962600
H           7.16523200      7.91886400     10.82784900
O           7.92922500     10.43792000     12.12894400
H           8.95508900     10.43645600     12.11427000
O           3.54091600      8.90206000     10.35657600
H           3.75788000      9.68427000     10.92107200
H           2.67863300      9.07595700      9.99305900
O           4.16671600     11.00798400     11.92221200
H           4.75121400     10.45170900     12.47843600
H           4.76920200     11.64988100     11.54160000
O           6.05941400      8.00838600      9.32295100
H           5.19365300      8.30485800      9.63681400
H           6.37898800      8.71675400      8.76692000
O           7.40189000      6.66430100     15.38611200
H           6.62409400      7.05386900     15.78855700
H           7.01079800      6.00721600     14.74506300
          29
 Energy =    -1176.12114290 a.u.  Frame:     4 Step:     4 Geom:     4
C           5.99649000      5.86030800     11.37610100
C           6.47944100      5.74849300     12.68204500
C           4.50665300      6.71767000     12.81787800
N           4.74282400      6.46463300     11.47330900
H           4.16058800      6.74584200     10.69316100
H           6.43547700      5.59185000     10.43735300
H           7.41582000      5.36261500     13.03482900
H           3.61763300      7.19599100     13.19351700
N           5.54331100      6.27811300     13.55935200
P           7.72244500      9.27352900     12.56032700
O           6.51352000     10.09741900     12.43562900
O           8.27599000      8.94591900     14.00245700
H           7.50223300      8.50115700     14.58482900
O           7.65068000      7.83386300     11.89388300
H           7.23604400      7.90465000     10.94327000
O           8.94908000     10.02805400     11.87499600
H           9.81648700      9.55108500     12.15746200
O           3.60342400      8.34071700     10.02737700
H           3.61477300      8.84074000     10.87489800
H           2.79944000      8.58388200      9.58117500
O           3.72770500      9.56161000     12.44387300
H           4.70396400      9.61843600     12.52100000
H           3.43362900     10.46339300     12.56952200
O           6.39685000      8.01490700      9.29718700
H           5.46355800      8.15326900      9.50437600
H           6.69557500      8.84993700      8.93323700
O           6.32961500      7.81409300     15.59075700
H           6.18343400      6.93599600     15.14331300
H           5.52332200      8.29183400     15.39290200
          29
 Energy =    -1176.12218260 a.u.  Frame:     5 Step:     5 Geom:     5
C           5.65505300      5.97261100     11.38470600
C           6.19032700      5.81729600     12.66480800
C           4.33867200      6.98732100     12.89177500
N           4.47796900      6.70529000     11.53912900
H           3.88977400      7.04109900     10.78497000
H           6.01443000      5.65289200     10.42799100
H           7.09771800      5.33724900     12.97036100
H           3.52516600      7.55897800     13.30878000
N           5.36034100      6.44533500     13.58402200
P           7.76185200      9.24419600     12.49508500
O           6.59196500     10.12303900     12.41336300
O           8.39937100      8.95007500     13.90889200
H           7.71584200      8.39437100     14.50552900
O           7.58441900      7.78608000     11.88684300
H           7.12505100      7.84791000     10.95713800
O           8.97490000      9.91444200     11.70335400
H           9.83959400      9.41972400     11.95708500
O           3.51009500      8.65631100     10.05150000
H           3.56913100      9.17043600     10.88847700
H           2.73305400      8.96637400      9.59912000
O           3.74259000      9.87057800     12.46042900
H           4.71535400      9.81783600     12.55694700
H           3.54342700     10.79171800     12.62540000
O           6.24863600      8.00065300      9.32086400
H           5.34011400      8.25065300      9.53414200
H           6.63181600      8.78246400      8.91996100
O           6.87081900      7.39073500     15.57166300
H           7.30643300      6.54290900     15.47620000
H           6.00608900      7.24143600     15.10147700
          29
 Energy =    -1176.12694150 a.u.  Frame:     6 Step:     6 Geom:     6
C           4.91415900      6.19428700     11.11340900
C           5.51197900      5.28473800     11.98801800
C           4.74947700      6.94354800     13.21517900
N           4.42473800      7.23516200     11.89904600
H           4.06067500      8.12925900     11.53384300
H           4.81205500      6.18001500     10.05036800
H           6.00219000      4.35606600     11.77889400
H           4.51465900      7.57740100     14.05109400
N           5.40439700      5.76354900     13.28499300
P           7.75581400      8.79319500     12.52320500
O           6.60785100      9.24474600     13.32488900
O           8.85729400      7.92384200     13.23542700
H           8.36137000      7.15552000     13.79944300
O           7.44059800      7.93183000     11.22410700
H           6.53148200      8.20977500     10.82254000
O           8.55655900     10.06217400     11.98728400
H           9.44077400      9.73740900     11.57286400
O           5.09851500     11.49273700     10.55908200
H           4.59989700     11.12239000     11.30744100
H           5.98285000     11.64240900     10.90521800
O           3.99910100      9.77325500     12.47699800
H           4.90692500      9.61924300     12.81579500
H           3.48594300     10.06032000     13.22872200
O           4.87958100      8.79427700      9.96096100
H           4.94181800      9.76336700     10.09052600
H           4.70903900      8.68065600      9.02929500
O           7.64740400      6.01074000     14.79926400
H           6.95175100      5.55376000     14.25239300
H           7.13110900      6.51434100     15.42971900
          29
 Energy =    -1176.11995300 a.u.  Frame:     7 Step:     7 Geom:     7
C           5.16900800      6.35480800     11.63121600
C           6.05206000      5.77185900     12.54345200
C           4.71765400      7.08133000     13.70453700
N           4.31977200      7.17082700     12.37696600
H           3.63356900      7.81152800     12.00007800
H           5.09310800      6.26407700     10.56610800
H           6.86810900      5.09921800     12.36981300
H           4.25666400      7.62774100     14.50573900
N           5.75385400      6.22610700     13.82092300
P           7.63679300      9.22098800     12.52826100
O           6.38983700      9.94581100     12.79474400
O           8.60855900      8.99112500     13.75076900
H           8.19589800      8.24621700     14.39411000
O           7.46826800      7.76245300     11.92986800
H           7.23242900      7.80319100     10.91701100
O           8.53032500     10.05522500     11.49767600
H           9.51565500      9.80737200     11.64476300
O           4.04613900      8.36423700      9.27964600
H           3.94281400      8.85885100     10.10635000
H           3.50294900      8.81045900      8.63746600
O           3.78900600      9.62356100     11.75368000
H           4.71488300      9.71412400     12.08119200
H           3.36033900     10.44402100     11.98148500
O           6.81621800      7.83735500      9.17392800
H           5.85580700      7.97104200      9.15358000
H           7.18657200      8.64809700      8.82485900
O           7.60946800      7.13690100     15.51823400
H           6.85266200      7.56622000     15.91663700
H           7.19158600      6.43526700     14.94692600
          29
 Energy =    -1176.13222760 a.u.  Frame:     8 Step:     8 Geom:     8
C           5.86516700      5.65288800     11.37673000
C           6.79301300      5.33779300     12.36890300
C           5.11447400      6.34602100     13.37368600
N           4.79766900      6.27836200     12.02202000
H           4.00592000      6.71895200     11.56326200
H           5.88954300      5.49827700     10.31708300
H           7.74945400      4.86304700     12.28486200
H           4.48776600      6.81284400     14.11380500
N           6.31226800      5.76908800     13.59853100
P           7.14329600      9.23074700     12.69633800
O           5.74605200      9.08221900     13.11938400
O           8.26616100      9.26356800     13.79570400
H           8.14511200      8.37032700     14.39440700
O           7.71216600      8.16491700     11.66656700
H           7.01787800      7.99890300     10.91035400
O           7.27113600     10.63682200     11.93517100
H           8.25664600     10.85817800     11.78720800
O           3.57679800      8.49554900     11.31780000
H           4.16380200      8.74560600     12.05583700
H           3.64066200      9.26292300     10.72993300
O           4.85470900     10.60825700      9.86877200
H           5.57876900     10.73705000     10.49548600
H           4.51108900     11.48223400      9.69584100
O           5.77079600      7.89810400      9.52386800
H           4.97259800      7.99297700     10.06431500
H           5.80012800      8.71957900      9.02125800
O           7.88739000      7.06436300     15.39105500
H           7.08797800      7.27354100     15.87675400
H           7.59156400      6.32687100     14.78508400
