%mem=50GB
%nprocshared=24
#p M052X/6-31G* scrf=(smd,solvent=water)

Title Card Required

0 1
 C                 -3.11765800   -1.25434300   -0.72690600
 H                 -3.08187900   -1.05612700   -1.79517800
 H                 -4.14819600   -1.33491700   -0.39090200
 H                 -2.56900800   -2.16264900   -0.49097700
 C                 -1.03643100   -0.02121400   -0.48833700
 H                 -1.09297900    0.11019000   -1.56825900
 H                 -0.60129000   -0.99416100   -0.27843600
 C                 -2.53135500   -0.36953700    1.46401900
 H                 -2.13356300    0.48785000    1.99738600
 H                 -3.57137700   -0.52557400    1.73908000
 H                 -1.94470200   -1.25925900    1.67937800
 C                 -3.23194200    1.14309000   -0.32814900
 H                 -4.27359200    0.98298800   -0.06143500
 H                 -2.82798000    1.96906500    0.24838400
 H                 -3.14032100    1.33978900   -1.39366500
 C                 -0.21792400    1.09393100    0.14070300
 H                 -0.14036300    0.96715300    1.22004500
 H                 -0.69217100    2.05872100   -0.04305700
 C                  1.18332200    1.17599900   -0.45801300
 H                  1.67944400    2.08450700   -0.11802000
 H                  1.16472500    1.18022500   -1.54867900
 N                 -2.47290500   -0.10727100   -0.00899400
 S                  2.30191800   -0.16147800    0.01627600
 O                  2.27611600   -0.22162000    1.49767000
 O                  1.79345400   -1.40594600   -0.60774900
 O                  3.62603400    0.23746400   -0.51654800

