%mem=100GB
%nprocshared=24
#p opt freq b3lyp/6-311+g(2d,p) em=gd3bj 

Title Card Required

0 1
 C                 -0.90747600    0.44782800   -0.10538400
 C                 -2.15496600    1.03425300    0.07344400
 C                 -3.27253400    0.20026700    0.08679100
 C                 -3.12682000   -1.17262600   -0.07810100
 C                 -1.86518200   -1.69801100   -0.25805400
 H                 -4.26134500    0.62260600    0.22707500
 H                  0.06504900    0.97599100   -0.11261900
 H                 -3.98108000   -1.83543500   -0.06900100
 H                 -1.67860900   -2.75324800   -0.39604600
 C                 -2.26216100    2.52478200    0.24324800
 H                 -2.74637500    2.77343400    1.19065100
 H                 -1.27805300    2.99093000    0.22686500
 H                 -2.86291700    2.96311100   -0.55750700
 N                 -0.79144200   -0.88775900   -0.26957400
 C                  0.58676100   -1.43821400   -0.45570500
 H                  0.46531900   -2.46969700   -0.78467900
 H                  1.03017600   -0.85548500   -1.26058700
 C                  1.45294600   -1.32114200    0.81263200
 H                  0.97703600   -0.62347300    1.50352200
 H                  1.49445700   -2.29343700    1.31429900
 C                  2.85617700   -0.80222600    0.49172200
 H                  3.46093600   -0.80256600    1.40215900
 H                  3.37214900   -1.46621900   -0.20858900
 C                  2.89603600    0.64535800   -0.09800800
 O                  4.00537300    1.05204600   -0.44558900
 O                  1.77795900    1.25622700   -0.16241500

