%mem=100GB
%nprocshared=24
#p M052X/6-31G*

Title Card Required

0 1
 C                 -0.66156500    0.31983700   -0.61948000
 C                 -1.91596900    0.72267600   -0.15143500
 C                 -2.74624700   -0.23990900    0.38724000
 C                 -2.32638400   -1.57396600    0.46006600
 C                 -1.08426600   -1.90841900   -0.00325300
 H                 -3.72033500    0.03969300    0.76985800
 H                  0.03476600    1.01611900   -1.07631600
 H                 -2.96014500   -2.34042600    0.88302600
 H                 -0.68482400   -2.91065200    0.03961700
 C                 -2.24629000    2.18297400   -0.18215500
 H                 -3.25272700    2.37114900    0.19091200
 H                 -1.52246000    2.71660400    0.43881800
 H                 -2.16623000    2.58642600   -1.19364500
 N                 -0.27813600   -0.96565700   -0.55209300
 C                  1.10635600   -1.35770900   -0.93309400
 H                  1.02553500   -2.34341000   -1.38950000
 H                  1.44584600   -0.64683800   -1.68436700
 C                  2.06618700   -1.38199300    0.27702200
 H                  1.49301900   -1.65872200    1.16440800
 H                  2.78998400   -2.18176500    0.09994800
 C                  2.80060200   -0.05308900    0.52490900
 H                  3.20899100   -0.05341500    1.53666700
 H                  3.61775400    0.06427700   -0.18793000
 C                  1.79556800    1.09969700    0.33972700
 O                  1.89006700    1.76815700   -0.71430300
 O                  0.84866100    1.13684000    1.17378700

