%nproc=24
%mem=50GB
#p M062X/6-311+G(2d,p) nosymm em=GD3 counterpoise=4

Title Card Required

0 1    
O           7.45827700      7.41433600      8.90019200         1
H           8.15869400      7.84122100      8.31746700         1
H           7.38358900      6.53230400      8.55684800         1
O           7.60697400      7.81189600     11.64656500         2
H           7.05606200      7.13165900     12.01807800         2
H           7.56938500      7.66199400     10.67788500         2 
O          10.21534300     14.22796900      9.24931000         3
H          10.69570700     13.63467400      8.63384800         3
H          10.26290400     15.08871000      8.84871400         3 
O          11.50995200     12.46849100      7.61863200         4
H          12.16919400     11.91049800      8.04322200         4
H          10.99325900     11.83122900      7.08058900         4 


