          41
 Energy =  -1826.36284710 a.u.  #Cluster:    1
C          10.18345200     12.07911100      9.76090900
C          10.94969200     11.90007900      8.61248800
C          10.57791500     10.93985100      7.67136500
C           9.43153000     10.17518600      7.89357300
C           8.66400800     10.40972000      9.04572100
H          11.21034800     10.75901800      6.79626800
H          10.49150700     12.76950300     10.55395800
H          11.86517000     12.48455300      8.47464100
H           7.77211300      9.78881900      9.28046400
C           9.04071100      9.08073600      6.97178200
H           7.96038300      8.88187100      6.96599200
H           9.35400000      9.25996800      5.93528200
H           9.52745400      8.13246600      7.29227600
N           9.03614600     11.36070100      9.94051400
C           8.18194600     11.64365300     11.11984900
H           7.91457500     12.72365600     11.09776500
H           7.22056600     11.07947600     11.01257600
C           8.86190500     11.28414300     12.45605200
H           9.89786800     10.90486200     12.29062200
H           9.00360400     12.20687500     13.05358200
C           8.06126200     10.27347300     13.26402000
H           7.00920700     10.58125500     13.37470600
H           8.45990600     10.21357200     14.29488500
S           8.11114600      8.58845500     12.57490300
O           8.13226800      8.81333400     11.08081600
O           6.90850600      7.94065200     13.07265000
O           9.41161000      8.02912700     13.03185100
P          11.55887300      8.70956700     10.47477200
O          11.54232500     10.18331500     10.68773400
O          12.77813000      8.22174600      9.56362300
H          12.92472000      8.96529300      8.85133400
O          11.75424900      7.83501600     11.75754500
H          10.79598600      7.88434100     12.31109800
O          10.30034900      8.22554800      9.64994400
H           9.40842200      8.37729600     10.24515500
O          13.60554200     11.90661200     10.13698700
H          12.85494600     11.31968700     10.40536100
H          14.29888300     11.69080300     10.75656000
O          13.51943200     10.49010500      7.71540500
H          14.41656500     10.35934700      7.42085000
H          13.59279500     11.04723000      8.51414000
          41
 Energy =  -1826.36036470 a.u.  #Cluster:    2
C           9.07800500     12.33205900      9.50424400
C           9.77524100     12.25770800      8.30278000
C           9.72754000     11.09246800      7.53547200
C           8.97398900     10.00547200      7.99418500
C           8.32671200     10.09898000      9.23060000
H          10.29183200     11.02251000      6.59978100
H           9.10076800     13.23773700     10.12807500
H          10.39891100     13.09937200      7.99277900
H           7.81048800      9.22733800      9.67192500
C           8.89217100      8.73685800      7.22721600
H           9.01331300      7.85459500      7.88597300
H           7.93837800      8.63136800      6.69599000
H           9.70459500      8.64427700      6.48617300
N           8.36272200     11.25806900      9.94733800
C           7.59408300     11.35252500     11.21215400
H           6.78411700     12.10193300     11.06029300
H           7.09374800     10.36983500     11.40462400
C           8.45259900     11.73629600     12.43260000
H           9.38091900     12.27102600     12.12288100
H           7.89541100     12.48296700     13.03710000
C           8.80620200     10.54572400     13.31110500
H           7.91190200      9.97163100     13.60354400
H           9.25358200     10.89373500     14.26241300
S           9.99442400      9.42094300     12.53124100
O           9.35092500      9.05772600     11.22273400
O          10.17850700      8.31960100     13.45988700
O          11.20297400     10.27162500     12.27510200
P          12.29660400      9.29384800      9.11773000
O          11.91337600     10.59749000      8.56066700
O          13.32908900      8.52211300      8.19049000
H          13.68276100      7.70845100      8.75240200
O          13.02731600      9.31249900     10.52475700
H          12.39254300      9.76728100     11.25335100
O          11.10823400      8.24208100      9.23529900
H          10.41900700      8.54744000      9.97205700
O          11.34058000     12.67671200     10.78903500
H          11.76255600     12.28905100     10.01592900
H          11.38160900     11.94188100     11.43601000
O          14.19317400      6.46056800     10.13930200
H          13.33819800      6.09896200     10.39280000
H          14.34091100      7.17726600     10.77197900
          41
 Energy =  -1826.35847100 a.u.  #Cluster:    3
C           9.26269700     11.91659000      8.61469400
C          10.04662500     11.42385700      7.57574400
C          10.01455700     10.06578000      7.25609500
C           9.18934700      9.21127100      7.99757800
C           8.44463800      9.73503000      9.05856300
H          10.64650300      9.67079200      6.45413400
H           9.29061400     12.97974600      8.90023200
H          10.72585500     12.09990300      7.05140900
H           7.85966100      9.07646800      9.72500900
C           9.13195100      7.75353200      7.72160800
H           9.97580300      7.41254100      7.09854800
H           9.21569300      7.16206400      8.65500200
H           8.20203600      7.45896000      7.22026600
N           8.46533900     11.07169200      9.32924700
C           7.58407200     11.60565500     10.39600700
H           6.81874800     12.25158900      9.90777800
H           7.03404000     10.75318100     10.86908600
C           8.32879700     12.39811700     11.48698200
H           9.28999500     12.81210000     11.10332300
H           7.72768100     13.29622500     11.74364900
C           8.57720400     11.58648400     12.74944500
H           7.64913500     11.13419900     13.13560400
H           8.94031000     12.24601200     13.56141100
S           9.81129600     10.27997000     12.51650500
O           9.27427400      9.46814300     11.37220000
O           9.90552700      9.58030000     13.78562400
O          11.04742600     11.00783000     12.07640400
P          12.39778400      8.98171000      9.58825700
O          12.08995000      9.99630100      8.57249900
O          13.49375100      7.94451400      9.09381600
H          13.77869500      7.38833700      9.93789300
O          13.00230300      9.51185900     10.95531700
H          12.31500300     10.18790200     11.41356800
O          11.18500900      8.02393700      9.96764200
H          10.43793900      8.56222900     10.48063900
O          11.34720000     12.73430800      9.86225500
H          11.86484600     12.12660600      9.32411700
H          11.31509600     12.26803000     10.72502300
O          14.13368000      6.71994800     11.71782500
H          13.25130000      6.46050200     12.00147400
H          14.23763800      7.61580500     12.06754500
          41
 Energy =  -1826.35812510 a.u.  #Cluster:    4
C          10.49344900     11.66054000      8.86992400
C          11.29108000     10.95790800      7.96957500
C          10.82846700      9.76210400      7.42025300
C           9.57333400      9.27940800      7.79313300
C           8.78707100     10.02991000      8.68258800
H          11.46054700      9.18634600      6.74279200
H          10.85836200     12.56699800      9.36868600
H          12.29382300     11.33074100      7.74435800
H           7.80337000      9.65321900      9.04098000
C           9.07927500      7.96180000      7.32538500
H           9.42990800      7.16592000      8.02147900
H           7.98298400      7.88784000      7.30988800
H           9.44558900      7.69252500      6.32693100
N           9.24423200     11.20614000      9.18150200
C           8.38187100     12.01658700     10.07508600
H           8.28237000     13.03172600      9.63066800
H           7.35369900     11.57284300     10.08429200
C           8.93300200     12.10651000     11.51255300
H           9.90679000     11.56925500     11.60120100
H           9.17990800     13.16168000     11.74461300
C           7.94857700     11.57370700     12.54245700
H           6.94653500     12.01348400     12.41708700
H           8.27107000     11.86420000     13.56060400
S           7.80243500      9.75666200     12.52960600
O           7.97972800      9.39326300     11.07110600
O           6.47667100      9.48097700     13.05963900
O           8.96250100      9.28225400     13.32418000
P          11.35959300      8.67025100     10.92112800
O          11.47216000     10.08135600     10.45661900
O          12.53779100      7.71882200     10.42407100
H          13.29230900      8.33701100     10.05175300
O          11.39190900      8.48005400     12.47628000
H          10.41482600      8.77719900     12.86407300
O          10.09762200      7.94991400     10.30046300
H           9.21266200      8.48325500     10.64799700
O          13.49409200     11.83770900      9.94615600
H          12.76719700     11.21649300     10.19164500
H          13.88865200     12.08246400     10.78135600
O          14.69120200      9.38469600      9.22760100
H          14.75077700      9.38341200      8.27831100
H          14.37258600     10.27284200      9.46200100
          41
 Energy =  -1826.35521340 a.u.  #Cluster:    5
C           8.44680300     11.91295800     11.48945200
C           9.37722700     12.77395000     10.91729400
C           9.83714100     12.54274900      9.62123700
C           9.33122300     11.45984600      8.89816300
C           8.36872000     10.63353200      9.49215200
H          10.61207000     13.18875800      9.18847900
H           8.13051800     12.02553500     12.53270200
H           9.80369000     13.58486200     11.51435400
H           7.95882200      9.76633900      8.95258500
C           9.82705800     11.13644500      7.53901500
H          10.83729200     11.55702800      7.35746300
H           9.94842600     10.04667600      7.38862600
H           9.16995200     11.51583700      6.74803400
N           7.93795500     10.87098300     10.76587500
C           6.98493700      9.92233300     11.39357700
H           6.00305500     10.43870200     11.49369900
H           6.83405700      9.05327300     10.70436000
C           7.43981500      9.38884600     12.76970400
H           7.82579800     10.21606900     13.40611000
H           6.53876900      9.01411600     13.30218300
C           8.47350000      8.27115200     12.69569600
H           8.07418900      7.38450900     12.17353300
H           8.73984900      7.92363000     13.71061400
S           9.97685500      8.81749400     11.84667400
O           9.57011200      8.74068700     10.40312500
O          11.07090500      7.90449600     12.18685800
O          10.12947100     10.23265800     12.27437100
P          12.83428900      8.43077000      9.04032100
O          13.23037100      9.79417700      9.39490500
O          13.76381500      7.88629000      7.86331800
H          13.46883200      6.92069700      7.65712500
O          13.00477600      7.30760000     10.14638800
H          12.37413100      7.51063800     10.95955200
O          11.38477000      8.25594000      8.41957400
H          10.65245800      8.43081400      9.16083300
O          12.01440500     11.97586200     11.17582500
H          12.60660500     11.29868400     10.83365700
H          11.35377100     11.44212800     11.66742900
O          12.82649600     12.57760600      8.37157900
H          12.58592400     12.50425800      9.30327000
H          13.23116300     11.72109300      8.19030700
          41
 Energy =  -1826.35502190 a.u.  #Cluster:    6
C           7.94214700     11.77745500     11.66721700
C           8.68909600     12.82638200     11.14997900
C           9.29441300     12.70261300      9.89511000
C           9.09724200     11.53114500      9.15833800
C           8.31022700     10.50611700      9.69790000
H           9.92646500     13.50704900      9.50446700
H           7.51926200     11.81992900     12.67652100
H           8.86330100     13.71849200     11.75400100
H           8.16099400      9.55680100      9.15244300
C           9.76107100     11.33648800      7.84665800
H           9.34531300     11.97807600      7.06143500
H          10.84682500     11.56266700      7.92157700
H           9.72260400     10.29213100      7.49057300
N           7.74591300     10.64052200     10.93338400
C           6.98234500      9.50909500     11.51719500
H           5.91503600      9.81738700     11.58934100
H           7.02793100      8.63882100     10.81262000
C           7.49606700      9.05928400     12.90355100
H           7.77847600      9.93958700     13.52300200
H           6.64955200      8.58469200     13.44420200
C           8.66362600      8.07918900     12.84961800
H           8.37230200      7.12839800     12.37098400
H           8.99277900      7.81232200     13.86960100
S          10.05755400      8.78982500     11.93828300
O           9.58174400      8.65295600     10.51465800
O          11.26648500      8.00697700     12.20560800
O          10.06655900     10.20903200     12.35995200
P          12.68604800      8.78680400      8.91963800
O          12.76994900     10.24255400      9.16277200
O          13.61456600      8.31197300      7.70500200
H          14.16828400      9.15606100      7.44167100
O          13.22400700      7.85473700     10.07798600
H          12.55100200      7.89466300     10.88811200
O          11.27468400      8.27112900      8.43365400
H          10.58560200      8.39108500      9.24335100
O          11.40789900     12.25564700     10.98998000
H          11.94606600     11.69503800     10.42394400
H          10.99737600     11.61401200     11.60426100
O          15.02022100     11.07676900      7.45690400
H          15.73482300     11.02329300      8.08951000
H          14.22416000     11.17282200      8.00502500
          41
 Energy =  -1826.35106920 a.u.  #Cluster:    7
C           9.87616500     11.48119800      8.04576900
C          10.33876300     10.70037300      6.98961100
C           9.78736100      9.43843600      6.76590800
C           8.79445700      8.96430800      7.62536900
C           8.34669600      9.78573400      8.67322300
H          10.16749000      8.80767400      5.95970900
H          10.32709200     12.45230100      8.28242700
H          11.17110400     11.05971800      6.37956600
H           7.60640200      9.41957000      9.41487000
C           8.24458700      7.59323000      7.49440000
H           8.85139200      6.88915800      8.10601700
H           7.21166100      7.50171800      7.85801300
H           8.26836800      7.21589100      6.46371100
N           8.86751400     11.02731100      8.84566200
C           8.32573000     11.91393500      9.90485300
H           7.93223800     12.83232200      9.41417300
H           7.44832500     11.41098600     10.38474300
C           9.37650300     12.27666300     10.97203700
H          10.38011000     11.87548000     10.69417000
H           9.52134300     13.37675300     10.99001900
C           8.98640700     11.79619700     12.36249900
H           7.96045500     12.09422800     12.62897800
H           9.63688400     12.28257200     13.11971800
S           9.16733500     10.00121400     12.56307600
O           8.72863900      9.44638700     11.22940700
O           8.32762300      9.62729800     13.68443600
O          10.64415800      9.82610200     12.73193800
P          11.80838500      8.85091200      9.70994900
O          11.81587200     10.26552000      9.30943300
O          12.71662300      7.99169000      8.72258300
H          12.77264300      7.03698400      9.11534600
O          12.39087000      8.52798200     11.14454200
H          11.72838000      8.97092800     11.87238200
O          10.39884600      8.13596100      9.60628100
H           9.72233600      8.58182600     10.31828200
O          12.45210000     11.91800700     12.08956800
H          12.53366500     11.64521000     11.17245800
H          11.88260200     11.22645100     12.48335900
O          14.71690000     10.17668600     12.57685300
H          14.21911600      9.46832000     12.16536700
H          14.09687700     10.91678600     12.54931100
          41
 Energy =  -1826.34886450 a.u.  #Cluster:    8
C          10.30639000     12.13566500      8.72152400
C          11.19233900     11.58353100      7.79965800
C          11.00657100     10.27330800      7.34117300
C           9.91919000      9.52377300      7.80428000
C           9.03424400     10.11613300      8.73488400
H          11.74336300      9.82120300      6.66374300
H          10.45816400     13.14050500      9.13244500
H          12.06143500     12.16458000      7.47282400
H           8.20264500      9.52703400      9.18675400
C           9.70425500      8.10906200      7.41305900
H           9.64020900      7.46743500      8.32535100
H           8.76768900      7.95855700      6.85943900
H          10.52286100      7.69792100      6.80729900
N           9.23468300     11.39460600      9.17454800
C           8.32666400     11.96640200     10.21861100
H           7.94491900     12.95011500      9.87137300
H           7.43469200     11.28646900     10.31878400
C           9.04489400     12.09184900     11.57545100
H           9.99360600     11.47962700     11.58022300
H           9.39631300     13.13333700     11.71708900
C           8.15382400     11.68991800     12.73957700
H           7.17288300     12.20287900     12.69317300
H           8.59891400     12.06952400     13.68572300
S           7.93598000      9.92839500     12.86399400
O           7.86390000      9.44864200     11.36412400
O           6.69014700      9.69999300     13.55435300
O           9.17241400      9.36597500     13.43056500
P          11.22245300      8.76299200     10.96538600
O          11.37564000     10.26915400     10.77548300
O          12.38667600      7.96323400     10.16522400
H          12.57654100      8.29606800      9.18160500
O          11.44567100      8.27903500     12.49172800
H          10.67326900      8.51852300     13.15477300
O           9.83775900      8.24982800     10.41054500
H           8.80407100      8.65166800     10.96094600
O          13.52079800     11.18124400      9.62968800
H          14.16126400     11.03850800     10.32455700
H          12.61001700     10.98687200     10.09203500
O          13.40387300      9.10780600      8.06847900
H          13.58218400      9.98133200      8.58751600
H          14.23661700      8.63731300      8.07203400
          41
 Energy =  -1826.33406420 a.u.  #Cluster:    9
C           8.62103000     12.27989300      9.48876100
C           8.98088800     12.26946700      8.13127200
C           8.94035000     11.08373300      7.40675200
C           8.51083400      9.89814100      8.03709000
C           8.09367000      9.95320400      9.37366200
H           9.27378100     11.05960600      6.36583300
H           8.74718000     13.18379600     10.10212000
H           9.35751800     13.19248600      7.68115000
H           7.78794200      9.03370300      9.91853400
C           8.56616400      8.58803400      7.33903200
H           9.57059300      8.13722500      7.48830700
H           7.84190200      7.85634900      7.72436800
H           8.40842900      8.66719200      6.25544200
N           8.15042700     11.13386100     10.08209400
C           7.76546500     11.13934900     11.53261600
H           7.00078700     11.93302100     11.68763200
H           7.26793500     10.16691700     11.77162400
C           8.97431500     11.36442000     12.46142800
H           9.89947800     11.57707200     11.86054700
H           8.81435400     12.30421100     13.03175600
C           9.22173100     10.22839100     13.43968800
H           8.31133800     10.01457500     14.03588600
H           9.95259400     10.56783300     14.20696100
S           9.82284100      8.72810100     12.68948000
O           9.32688800      8.76422100     11.24299200
O           9.28906800      7.62633600     13.45805700
O          11.31862100      8.84537900     12.62888700
P          11.85461700     10.80787600      9.88512300
O          10.85406900     11.88964900     10.10633300
O          13.01168700     10.95379000      8.81429000
H          13.93565600     10.27108100      9.07046100
O          12.77108200     10.45205600     11.21220700
H          12.30459500      9.99359500     12.02670700
O          11.17501700      9.36387900      9.53129300
H          10.33777000      9.03538900     10.15275200
O          12.98652000      7.60382000     10.61047900
H          12.64574200      7.87933500     11.49632000
H          12.24776800      7.80414100      9.99744200
O          14.72467700      9.47512200      9.92302300
H          14.64312900      9.97402300     10.77195700
H          14.15156400      8.62974600     10.10966300
          41
 Energy =  -1826.32723000 a.u.  #Cluster:   10
C          10.43050000     11.11846900      7.93805300
C          11.13705200     10.15632600      7.20251600
C          10.65340800      8.85426700      7.10661300
C           9.44559600      8.51114400      7.74537100
C           8.73583500      9.51161300      8.43202700
H          11.23169500      8.08808300      6.58225600
H          10.83816300     12.12462600      8.09865300
H          12.10042600     10.42884000      6.76059500
H           7.81253800      9.27062000      8.99496900
C           8.95890900      7.11117200      7.79999900
H           9.42505600      6.45334600      7.05621100
H           9.21974200      6.69239800      8.80391300
H           7.87060700      7.01779200      7.69657700
N           9.22639500     10.79341700      8.51472900
C           8.47221100     11.81216100      9.31551800
H           8.23585200     12.67565400      8.65502600
H           7.49242500     11.36235100      9.62120800
C           9.25328700     12.27209100     10.55975200
H          10.21347600     11.68011800     10.67170700
H           9.60647400     13.31203800     10.40788300
C           8.43375200     12.19622100     11.83850300
H           7.42848000     12.64358900     11.69818100
H           8.90002700     12.85718000     12.60382900
S           8.30397500     10.55274600     12.48938200
O           8.09529300      9.65048800     11.17311100
O           7.12066300     10.50314700     13.30730100
O           9.59346500     10.16517600     13.05795700
P          11.40104800      8.95439200     10.58132200
O          11.47838800     10.38469700     10.04194600
O          12.57480600      8.08991700      9.87365500
H          13.41228300      8.70837800      9.55191500
O          11.91946100      9.03098100     12.15777700
H          11.19269400      9.22035400     12.84985500
O          10.05100400      8.22257500     10.47838800
H           8.93095400      8.84846600     10.96553200
O          14.20658600     10.05848700     12.11631600
H          13.34927900     10.45881300     12.35178700
H          14.07788900      9.11399500     12.30131000
O          14.01080500     10.16028700      9.46576700
H          13.16565800     10.69755200      9.55894500
H          14.45386000     10.25605300     10.35366200
          41
 Energy =  -1826.32035330 a.u.  #Cluster:   11
C          10.18363100     12.33202900      9.29489900
C          10.53763300     12.16482200      7.95422200
C           9.90397000     11.19465200      7.17632200
C           8.89441500     10.39883300      7.74432300
C           8.56330900     10.59452400      9.09896800
H          10.20897700     11.03380500      6.13923600
H          10.70678700     13.06978000      9.94993900
H          11.33244400     12.78502600      7.53229800
H           7.82455500      9.93510600      9.61462900
C           8.22111700      9.32037700      6.97996500
H           7.13837200      9.27440100      7.15813200
H           8.38100600      9.38421000      5.89709400
H           8.63009600      8.33193400      7.30486500
N           9.20922700     11.54113300      9.84967500
C           8.89435600     11.66314100     11.31015600
H           8.69463700     12.73191000     11.54616700
H           7.95076200     11.09255800     11.51999000
C          10.05290800     11.12587700     12.16917500
H          10.86166400     10.69423100     11.51501500
H          10.55294700     11.97975200     12.68008800
C           9.61274000     10.08443900     13.18401800
H           8.76767000     10.45105700     13.79907400
H          10.42407300      9.93373600     13.92897500
S           9.21148900      8.54059600     12.41300400
O           8.20564600      8.84190900     11.31899500
O           8.78028600      7.63240000     13.45115100
O          10.45020800      8.07720300     11.64652300
P          11.13348500      8.25430100      9.55580200
O          11.50116900      9.66496900      9.89767600
O          11.68058200      7.99237400      8.00620600
H          11.88527700      7.05463800      7.77537300
O          11.91482700      6.96994500     10.20035300
H          11.68286800      6.76994600     11.17826100
O           9.57581300      7.91069900      9.24014400
H           8.84798400      8.09937300      9.98392700
O          13.27905600     11.15860600     10.50809600
H          12.95906900     10.37238100     11.00878100
H          12.88950800     10.99712900      9.61914700
O          11.94861700     13.24191700     11.37725400
H          12.55963300     13.94209900     11.55914600
H          12.51720200     12.43219800     11.14294900
