          37
 Energy =     -0.43650300 a.u.  #Cluster:    1
C           8.73055300      8.66221400      9.19465900
C           7.70339500      9.51782500      8.74329500
C           7.42595100     10.68229300      9.47280200
C           8.17589100     10.97141600     10.61560000
C           9.17866700     10.09853200     11.03979500
H           6.65993500     11.38063100      9.12843500
H           9.02569000      7.78279500      8.59694900
H           8.01539600     11.90308300     11.16522400
H           9.83151100     10.34788700     11.89929100
C           7.00244000      9.19280000      7.47438300
H           6.19695700      9.89774500      7.23087700
H           7.72449300      9.23836300      6.62927800
H           6.57246600      8.18241000      7.47018000
N           9.43506800      8.94312400     10.33995900
C          10.48816900      7.96568000     10.76326300
H           9.98103600      7.02083700     11.05733900
H          11.11674400      7.71276100      9.82421800
C          11.42531100      8.43635400     11.87882400
H          10.91360100      9.14150000     12.57051000
H          11.69611500      7.55788100     12.50276600
C          12.70915500      9.08442300     11.35587600
H          13.28239000      9.53709300     12.18966700
H          13.38173300      8.32443200     10.90540400
C          12.41205900     10.16012800     10.32010700
O          11.61149500     11.08759000     10.64729500
O          12.93307600     10.03962000      9.18499300
P          10.60538100     11.06009200      7.40611100
O          10.17469400      9.63237100      7.45476800
O           9.86481800     11.85900000      6.17754700
H          10.19981900     12.77808100      5.99487700
O          10.23465900     11.95041000      8.69318100
H          10.91314300     11.84149700      9.57668900
O          12.17424400     11.35156800      7.12230900
H          12.84542000     10.99902200      7.86822800
O          11.90265400      7.66629800      8.23795300
H          11.30576000      8.16173900      7.62977600
H          12.65013700      8.28052500      8.38758900
          37
 Energy =     -0.43479200 a.u.  #Cluster:    2
C           9.25964800      8.48370000      9.43232000
C           8.34875300      9.23774700      8.67890200
C           7.73736300     10.36016600      9.27592900
C           8.05837900     10.68999100     10.59731800
C           8.96883200      9.91762300     11.31745900
H           7.04282200     10.99113100      8.70064900
H           9.80460300      7.62179200      8.97852100
H           7.62911300     11.58801000     11.05287100
H           9.25379200     10.17979400     12.34375500
C           8.10952800      8.88784100      7.25687300
H           7.98996400      7.81250800      7.08349500
H           7.23786200      9.40220900      6.82852500
H           8.98206700      9.22600700      6.64513100
N           9.55375400      8.81861000     10.73159900
C          10.52943100      7.98319300     11.50236200
H           9.98959500      7.50381600     12.34942700
H          10.89595600      7.14829200     10.83688100
C          11.73395400      8.78822500     12.01088200
H          11.42079600      9.76899600     12.43090400
H          12.19215500      8.23381600     12.85716600
C          12.78960100      9.02068600     10.93172200
H          13.70154900      9.46899200     11.37688500
H          13.11158700      8.06297000     10.47248500
C          12.26512300      9.96273400      9.85278000
O          11.97970900     11.13761100     10.16264000
O          12.10800300      9.46812000      8.69055100
P          10.07953800     12.19607400      7.49461700
O           8.76526500     12.21335300      8.17105400
O          10.09688200     13.07425400      6.10543900
H          10.99695900     13.28719800      5.74114600
O          11.38307400     12.80064600      8.23702900
H          11.73036600     12.29289000      9.11445600
O          10.54605700     10.71097700      7.01423400
H          11.34337800     10.25051200      7.56575500
O          11.60182700      6.87543300      8.83660800
H          11.90831100      6.29596500      8.15332600
H          11.97442800      7.78812900      8.61831600
          37
 Energy =     -0.43439700 a.u.  #Cluster:    3
C           8.90992200      8.45444900      9.38625100
C           8.06474300      9.28900700      8.64333700
C           7.73152900     10.55788600      9.16561500
C           8.27661200     10.96110400     10.38331000
C           9.11844100     10.10207600     11.09824800
H           7.10152600     11.24178400      8.57562500
H           9.24139100      7.47200000      8.98640200
H           8.09979400     11.97446900     10.76160900
H           9.59164400     10.42218400     12.03777900
C           7.58090200      8.87751100      7.30311400
H           6.48551800      8.81695100      7.25068400
H           7.88457100      9.65354100      6.55568700
H           7.99300100      7.92439200      6.95225500
N           9.41404600      8.85820500     10.60181200
C          10.29650400      7.91567600     11.36374800
H           9.69396700      7.46814800     12.18658900
H          10.59444000      7.07146100     10.67510100
C          11.56692400      8.57185300     11.92066800
H          11.33889000      9.53289800     12.43202700
H          11.98228200      7.90854200     12.70934400
C          12.63154400      8.80868800     10.85095800
H          13.57942000      9.14489900     11.31905900
H          12.87239900      7.87095200     10.30919400
C          12.17288900      9.87559200      9.86260700
O          12.00497700     11.04386200     10.26821700
O          11.93836100      9.48940800      8.67200400
P          10.09771400     12.19236200      7.39031700
O           8.76767100     11.63779700      7.06335100
O          10.40900200     13.62954400      6.65158000
H          11.36823900     13.83286000      6.49152600
O          10.26307200     12.46722000      8.98241300
H          11.14543200     12.10378600      9.46307000
O          11.43836400     11.39570300      6.95598300
H          11.73755600     10.54692100      7.54407400
O          11.16690600      6.92409500      8.62751700
H          11.54591100      6.36795300      7.96122400
H          11.54390800      7.84423400      8.46771100
          37
 Energy =     -0.43295800 a.u.  #Cluster:    4
C           8.99133300      8.42589800      9.31630300
C           8.19022400      9.28067500      8.56142100
C           7.82525000     10.52742600      9.09819600
C           8.31483400     10.89189600     10.34787900
C           9.12516500     10.01327600     11.06820400
H           7.18875300     11.21299300      8.52594800
H           9.32708900      7.45493800      8.90896800
H           8.11990600     11.89000300     10.74985400
H           9.55752100     10.30232000     12.03734700
C           7.80021900      8.88947100      7.18477000
H           7.26715300      7.93316100      7.14167800
H           7.18099100      9.65406500      6.68790600
H           8.70336800      8.80294400      6.54325200
N           9.42377500      8.78686200     10.56148200
C          10.21524000      7.80948800     11.34884700
H           9.53069200      7.34003100     12.09238100
H          10.56641200      6.99085900     10.66484400
C          11.43812100      8.41224000     12.05923300
H          11.17175500      9.33348500     12.61899100
H          11.78811800      7.69015000     12.82580200
C          12.57450700      8.72158400     11.09077300
H          13.47102000      9.07876600     11.63190100
H          12.89162700      7.81936900     10.53319100
C          12.15553900      9.82213200     10.10942700
O          11.50419700     10.77758600     10.56323200
O          12.45852900      9.63543300      8.91005300
P          10.44180400     12.07188500      7.41292900
O           9.27152900     11.21798800      7.18405400
O          10.34090900     13.37757500      6.49782400
H          11.17832100     13.95000600      6.68654700
O          10.55386800     12.67803000      8.87812400
H          10.97549700     11.95290900      9.53089400
O          11.85588100     11.47148500      7.03848000
H          12.12130600     10.74027000      7.77671300
O          11.35529700      7.19728800      8.35610700
H          11.72509500      6.90247300      7.53144600
H          11.76917500      8.08305600      8.50501900
          37
 Energy =     -0.43276900 a.u.  #Cluster:    5
C           9.13938900      8.59991700      9.40316800
C           8.27611100      9.32195700      8.56895300
C           7.69700400     10.50224300      9.04521900
C           8.01492000     10.94176900     10.33638400
C           8.87569500     10.19676100     11.13130700
H           7.02172000     11.08784400      8.41154000
H           9.63114600      7.67443300      9.04331400
H           7.62981500     11.89958600     10.69683100
H           9.16272000     10.52883400     12.13490100
C           8.05240600      8.85256300      7.18100500
H           8.05012800      7.75932200      7.08517700
H           7.11961000      9.23302700      6.74378700
H           8.87087400      9.22724000      6.52330900
N           9.40680200      9.02743000     10.66424600
C          10.26112200      8.20774000     11.55507100
H           9.65350600      7.91040300     12.43989600
H          10.54208000      7.25648000     11.02870600
C          11.54192900      8.93322800     12.00014300
H          11.35201100     10.01000900     12.19905400
H          11.87362400      8.50481100     12.96818900
C          12.66746400      8.80705200     10.97598700
H          13.63416200      9.12067900     11.41506100
H          12.80560900      7.76587800     10.63412600
C          12.33833100      9.72827200      9.79640300
O          12.67509700     10.91031600      9.88492100
O          11.69294800      9.20868400      8.84529100
P          10.36674100     12.27620500      7.67872100
O           9.21537500     12.26437000      8.58853300
O          10.05668600     13.22573200      6.43172200
H          10.89257400     13.21923000      5.82652500
O          11.73308300     12.83204700      8.24260800
H          12.14278800     12.09120200      8.90506800
O          10.68133100     10.88095800      6.98162200
H          11.13418200     10.22972600      7.69296800
O          11.41466400      6.57533300      8.85818900
H          11.85732500      6.21257900      8.10289700
H          11.59904900      7.55615300      8.81917100
          37
 Energy =     -0.43255800 a.u.  #Cluster:    6
C           9.00745400      8.29030500      9.53704000
C           8.06068200      9.01749400      8.82094300
C           7.75661200     10.32808700      9.22762100
C           8.39656400     10.85465900     10.34213400
C           9.34652400     10.09538000     11.03182700
H           7.05201200     10.93233300      8.64762700
H           9.30336200      7.27558600      9.22591000
H           8.22271100     11.89120500     10.64810800
H           9.90111900     10.52449500     11.88516300
C           7.42543200      8.43337500      7.61397900
H           7.71963400      7.39255200      7.42341700
H           6.32864600      8.46704600      7.66077000
H           7.72262400      9.00746300      6.70921700
N           9.63840300      8.83371900     10.62518200
C          10.63149300      7.97603700     11.32228200
H          10.06586700      7.29883600     12.00365000
H          11.13110900      7.32999900     10.54788300
C          11.72218000      8.71896300     12.10812600
H          11.31400600      9.59227800     12.65806500
H          12.11080000      8.03801700     12.89444100
C          12.87545300      9.17312300     11.21820900
H          13.67538700      9.64594000     11.81974100
H          13.35032700      8.32142900     10.69652600
C          12.39909000     10.20721400     10.19249000
O          11.60088000     11.07605600     10.59523900
O          12.81591000     10.06959900      9.02612100
P          10.32369300     11.80234300      7.41156600
O           9.51289300     10.58132500      7.29161500
O           9.79689500     12.90372400      6.38463200
H          10.39341200     13.73919200      6.50380500
O          10.20260500     12.53005700      8.81886600
H          10.82203300     12.01589800      9.52526500
O          11.86419000     11.67271300      7.08753700
H          12.31107500     11.05530400      7.85271300
O          11.13076700      7.99174700      8.13054700
H          10.62824900      8.56310000      7.53710700
H          11.86992200      8.57342100      8.39465000
          37
 Energy =     -0.43152900 a.u.  #Cluster:    7
C           9.14697800      8.19398700      9.42453400
C           8.21226900      8.98361000      8.75587600
C           7.85918900     10.22968000      9.29652800
C           8.45350400     10.64447300     10.48490000
C           9.38239500      9.82676900     11.12870400
H           7.14687800     10.87662200      8.77133200
H           9.48444600      7.23304900      9.00311800
H           8.24933600     11.64157200     10.88774600
H           9.88459000     10.14789500     12.05362900
C           7.63925100      8.51757600      7.46821000
H           8.28553900      7.78293900      6.95871100
H           6.64964100      8.05986700      7.59750300
H           7.52200200      9.35507600      6.75185300
N           9.70342100      8.61269300     10.60131800
C          10.65648500      7.71043300     11.29244200
H          10.11853300      7.24060400     12.14915500
H          10.94348100      6.88505600     10.59376700
C          11.93679100      8.39979200     11.79206000
H          11.70052300      9.29586500     12.40524900
H          12.45853600      7.70287700     12.48097800
C          12.87494500      8.79545900     10.65831000
H          13.86696900      9.09138400     11.05312000
H          13.06755200      7.95360100      9.96797400
C          12.33464100      9.99050500      9.86387000
O          11.57522300     10.77901400     10.46036200
O          12.67859100     10.05634900      8.66821200
P          10.16335300     12.13018400      7.55932900
O           9.30221700     10.97119400      7.27905600
O           9.62082200     13.41230300      6.78046200
H          10.25716700     14.19493500      7.00496600
O          10.15637700     12.59612600      9.07830700
H          10.77870500     11.92946000      9.63971300
O          11.67614000     12.01908000      7.11740900
H          12.13972200     11.25529700      7.72207300
O          10.85589100      8.22122500      7.53509700
H          10.33442100      8.92622400      7.13057600
H          11.64349500      8.70724100      7.84357000
          37
 Energy =     -0.43006600 a.u.  #Cluster:    8
C           9.62127400      8.30577700      9.40352600
C           8.74291800      8.67100500      8.37092700
C           7.70695200      9.56291800      8.64762600
C           7.60209200     10.11581800      9.92672700
C           8.54437100      9.79509700     10.90102400
H           7.01880000      9.87308100      7.85753000
H          10.42079700      7.56376000      9.23849700
H           6.82960900     10.85740900     10.15052900
H           8.55482500     10.29672200     11.87493400
C           9.00104400      8.15839800      7.00627300
H           8.11723900      8.16401300      6.35882400
H           9.76996500      8.80248600      6.51963700
H           9.42875000      7.14152200      6.99339900
N           9.51936500      8.87722200     10.63089600
C          10.50817500      8.52590900     11.67553700
H          10.04233200      8.65984200     12.67886500
H          10.76315500      7.44330400     11.58833700
C          11.78193200      9.38085500     11.57052200
H          11.51646900     10.46201500     11.47540000
H          12.33684700      9.30817100     12.52774500
C          12.69390900      8.97312700     10.41334100
H          13.75858800      9.08665700     10.69466000
H          12.56715200      7.92200400     10.11126600
C          12.40181400      9.91467000      9.23570400
O          12.92124400     11.03011200      9.24735400
O          11.59469700      9.48379600      8.36550100
P           9.83946200     12.46499300      8.64443000
O           9.24615600     11.99342800      9.90162200
O           8.91395200     13.60114400      8.00836400
H           9.37979600     13.92795500      7.14672700
O          11.26474500     13.14879300      8.71522700
H          11.98475700     12.38303300      8.89629300
O           9.90409800     11.37784100      7.48613800
H          10.63025200     10.63835900      7.75104900
O          11.90279700      6.96717400      7.44575000
H          12.61704400      6.97728800      6.82117600
H          11.81264800      7.90431600      7.73865600
          37
 Energy =     -0.42837400 a.u.  #Cluster:    9
C           8.88920600      8.45695200      9.84495900
C           8.05744300      9.24734000      9.05393100
C           7.88437900     10.60138700      9.38389200
C           8.55709000     11.12065400     10.48537800
C           9.38745300     10.30142400     11.25176500
H           7.24730500     11.24268100      8.76278000
H           9.06967100      7.39916600      9.60167800
H           8.49553900     12.18851300     10.72002700
H           9.95344800     10.69811900     12.10792600
C           7.39923400      8.66343100      7.85864500
H           7.91258700      7.75854900      7.49095900
H           6.35091700      8.39940500      8.05026800
H           7.40757100      9.37413500      7.00781400
N           9.52682900      8.98454900     10.93405300
C          10.37487100      8.09466500     11.76297900
H           9.83964600      7.90991000     12.72400400
H          10.47454200      7.10597200     11.25131800
C          11.78053800      8.65137300     12.04483600
H          11.72719700      9.65834800     12.51240900
H          12.26303600      8.00116300     12.80433500
C          12.65335100      8.71686600     10.79782300
H          13.71749100      8.86453400     11.06953300
H          12.62264200      7.77410100     10.22078900
C          12.26214100      9.88082500      9.87894700
O          11.62840700     10.82775200     10.38617700
O          12.58938000      9.76751400      8.68267800
P          10.31850000     11.99564000      7.36000200
O           9.31057600     10.93132400      7.23832300
O           9.91719300     13.23394300      6.43817100
H          10.65410600     13.94906600      6.55396100
O          10.41643700     12.63718400      8.81061900
H          10.96794600     11.96903900      9.43950900
O          11.79161200     11.64011700      6.91351200
H          12.17407300     10.90197600      7.60103100
O          10.50986000      8.06272500      7.80025100
H          10.05302800      8.78874000      7.35863500
H          11.36477600      8.47093700      8.02609400
