%nproc=24                                                            
%mem=50GB                                                            
#p M062X/6-311+G(2d,p) nosymm em=GD3 counterpoise=2                  
                                                                     
Title Card Required                                                  
                                                                     
0 1                                                                  
C           6.81996200     11.65594300      7.74528100            1  
C           6.92902300     10.57768200      8.63681500            1  
C           6.10689600     10.50870700      9.74662600            1  
C           5.17776200     11.53767900      9.98110900            1  
C           5.09992000     12.59461200      9.07973000            1  
H           6.15521300      9.65624500     10.42557500            1  
H           7.44878900     11.71001000      6.81565600            1  
H           7.63563400      9.77864200      8.40190600            1  
H           4.34672600     13.38188800      9.19341300            1  
C           4.23778600     11.48133800     11.12844400            1  
H           4.55418000     10.78061800     11.91227100            1  
H           4.08227300     12.45759300     11.60616000            1  
H           3.24328200     11.13847000     10.77150100            1  
N           5.92597900     12.64692400      7.98859000            1  
C           5.74668100     13.75041900      7.01290600            1  
H           5.79183600     14.71653400      7.56029400            1  
H           6.60589300     13.75183900      6.29046300            1  
C           4.41147500     13.62245000      6.24744700            1  
H           3.65971000     13.08552600      6.87110300            1  
H           3.98981300     14.63909600      6.10597800            1  
C           4.53113400     12.93931400      4.89302700            1  
H           5.08529000     13.56633500      4.17461000            1  
H           3.53097300     12.78825500      4.45094500            1  
S           5.36876600     11.31559600      4.96561500            1  
O           4.86360500     10.54479200      3.84064700            1  
O           5.01524200     10.79914500      6.33622900            1  
O           6.80695200     11.69215000      4.97523800            1  
O           3.12987100     11.12147800      8.20254900            2  
H           3.83971600     10.95320000      7.51864900            2  
H           2.42961800     10.53753600      7.94123300            2

