%nproc=24
%mem=10GB
#p M062X/6-311+G(2d,p) nosymm em=GD3 counterpoise=3

Title Card Required

0 1
C           7.98594200     12.72276500     14.01328700       1
C           6.94908200     11.83256200     14.32430300       1
C           5.65621900     12.33271500     14.45765000       1
C           5.42946500     13.69668600     14.27737100       1
C           6.51772200     14.52016000     13.96780800       1
N           7.76992800     14.04045500     13.84229400       1
H           4.82918800     11.66570200     14.69936200       1
H           9.02603700     12.38163200     13.89192400       1
H           7.15616100     10.77471200     14.45593100       1
H           4.43172000     14.11368500     14.37332900       1
H           6.40153300     15.59889900     13.81088300       1
P          10.87657000     14.65174800     11.97968900       2
O          10.92749700     13.19635800     12.10782700       2
O          10.22075700     15.20661700     10.63263200       2
H          10.34629300     14.49813100      9.89099600       2
O          10.12244900     15.50603500     13.07766800       2
H           9.19689500     15.02733100     13.29028000       2
O          12.33720000     15.28948300     12.00587100       2
H          12.24236800     16.31308600     12.01891100       2
O          10.71145000     12.95588900      8.78141900       3
H          10.35151900     12.30705900      9.39688000       3
H          11.66401200     12.87830300      8.88369700       3







