          26
 G =       -0.581793 Gcorr = 0.122699 a.u. Nimag =   0 Frame:     1 Step:     5 Geom:     5
C          11.37682800     15.13363200     12.41050100
C          12.00708400     15.98047700     11.49530800
C          12.63955300     13.92936800     11.00368900
N          11.78698800     13.84184200     12.09520100
H          11.45726500     12.97889100     12.52226800
H          10.70941800     15.35021100     13.21720700
H          11.96735600     17.04848700     11.40931300
H          13.11935700     13.07617100     10.54176200
N          12.77794300     15.21850300     10.63049400
P          13.59503300     14.48538200      7.25340300
O          13.46903200     13.16635000      7.88922700
O          12.27160000     15.05679700      6.57698100
H          11.51801900     15.11009900      7.28952800
O          14.14604400     15.66732900      8.14964600
H          13.76975200     15.56684900      9.13667500
O          14.60563300     14.44388100      6.02875300
H          14.67149200     15.41087300      5.65970400
O          11.01567900     12.23100500      8.97854400
H          10.61860500     11.76011300      8.24560300
H          11.89643400     12.50788800      8.63744600
O          10.29907300     15.00738200      8.69814300
H          10.41001700     14.06726400      8.89644500
H          10.75685200     15.46393100      9.41259900
O          11.07684200     11.42189100     11.67340800
H          10.47507800     10.69801300     11.81134100
H          11.03303600     11.63738800     10.72682000
          26
 G =       -0.578583 Gcorr = 0.119027 a.u. Nimag =   0 Frame:     2 Step:     6 Geom:     6
C          12.52255700     13.94856700     12.37061400
C          12.73558700     15.26983700     11.97804400
C          14.37469300     14.08077200     11.11631500
N          13.57160700     13.20376800     11.83262900
H          13.60908000     12.18619200     11.78529400
H          11.74474100     13.50696100     12.95537600
H          12.16142800     16.14929800     12.18858200
H          15.25613700     13.78359000     10.57432300
N          13.88223600     15.33556600     11.19620500
P          12.63648600     14.42839700      8.02904600
O          11.89089700     13.56814000      8.96115700
O          11.99072600     14.68334400      6.60638000
H          11.02242700     15.07942000      6.75258600
O          12.96890000     15.89666300      8.50882900
H          13.38779100     15.86466200      9.48235500
O          14.02547700     13.72569300      7.68146800
H          14.47970800     14.25385900      6.92597500
O          13.07787800     11.20551500     10.34367800
H          13.63254400     10.82302000      9.66560800
H          12.60565000     11.92546400      9.88982300
O           9.38465800     15.67013800      7.08716200
H           9.08477300     15.04482100      7.77695700
H           9.45518100     16.50970300      7.54263000
O           8.93254800     13.84712900      9.14060200
H           8.65654900     12.99843700      8.79495700
H           9.88975600     13.75105800      9.27341700
          26
 G =       -0.577900 Gcorr = 0.121565 a.u. Nimag =   0 Frame:     3 Step:     7 Geom:     7
C          13.84793700     13.78056200     11.78254800
C          13.80100400     15.16725400     11.65065700
C          11.77984500     14.42221300     11.19533200
N          12.56112300     13.31541600     11.50548700
H          12.31154200     12.34293800     11.36975600
H          14.65619100     13.12547300     12.02414500
H          14.57651600     15.89535900     11.77838100
H          10.73575300     14.36992200     10.93182500
N          12.51722900     15.54889400     11.27834000
P          13.27300900     14.79371600      7.76087500
O          13.87889300     13.76211700      8.60496800
O          12.27869600     14.27968300      6.63568300
H          11.28912700     14.39875000      6.97010700
O          12.39391800     15.91877800      8.46421400
H          12.68547500     16.06967900      9.45674400
O          14.40198700     15.55870200      6.94904300
H          13.94072500     16.23052400      6.31626400
O          12.45764900     11.52755000      9.70526600
H          12.77890800     10.74524600      9.26270200
H          12.95223900     12.27512500      9.29608000
O           9.67548800     14.54217400      7.68859400
H           9.67003200     13.83663300      8.35613300
H           9.76487800     15.35491800      8.19515700
O           9.82679600     12.49511200      9.62926400
H           9.24797500     11.75996100      9.44404200
H          10.72708200     12.13331800      9.59840400
          26
 G =       -0.576944 Gcorr = 0.123093 a.u. Nimag =   0 Frame:     4 Step:     8 Geom:     8
C          11.59435100     14.34999800     12.26163000
C          11.90428900     15.65387800     11.87640100
C          13.62081900     14.40358100     11.29971600
N          12.69093700     13.56443400     11.90485100
H          12.70805300     12.55023900     11.88603300
H          10.71992100     13.94459200     12.72676900
H          11.33418800     16.55508600     11.98403700
H          14.56816900     14.06769800     10.90601400
N          13.15718600     15.66884900     11.27511100
P          13.14810700     14.71809700      7.62781000
O          13.67788600     13.48742400      8.21897200
O          12.16842200     14.58936300      6.39162300
H          11.25295100     14.18600300      6.71466100
O          12.29740200     15.61821600      8.62867700
H          12.90561000     15.97097100      9.40628300
O          14.33224300     15.61059700      7.05692100
H          13.91858500     16.35182200      6.47009400
O          12.52303300     11.73213900     10.23748500
H          12.57084900     10.83993200      9.90016300
H          12.94461000     12.29116600      9.55790100
O           9.73463900     13.40771000      7.21322800
H           9.74955100     13.48161900      8.18920000
H           9.71723300     12.47033100      7.03982400
O          10.18600600     13.54649300      9.93353200
H          10.63480300     14.40311100      9.88016300
H          10.90017500     12.91665900     10.09290700
          26
 G =       -0.579992 Gcorr = 0.123419 a.u. Nimag =   0 Frame:     5 Step:     9 Geom:     9
C          11.45461500     15.76364200     11.01919000
C          12.78416200     16.10963900     10.78116500
C          12.77792400     13.98139800     11.34792100
N          11.46011200     14.41853800     11.39007200
H          10.63744200     13.84940900     11.55313100
H          10.55303100     16.33336800     10.93063100
H          13.20383600     17.04241800     10.45953700
H          13.08723500     12.97226900     11.57007600
N          13.58987200     14.99505200     10.98416400
P          13.37647600     14.28433100      7.63954000
O          12.61607200     13.03453200      7.75252100
O          12.60425300     15.61674500      8.04649100
H          11.64253700     15.38608700      8.36002900
O          14.74593800     14.38652600      8.42604700
H          14.54962700     14.66031100      9.43312100
O          13.82399500     14.51846500      6.13258600
H          14.40415700     15.37349100      6.10820500
O          12.21311900     11.28106600      9.95570100
H          12.32598000     10.42139300      9.55509700
H          12.48520800     11.91179200      9.25705100
O           9.89183800     14.88583600      8.80044000
H           9.59690100     14.54821700      7.95268100
H           9.91107000     14.10975200      9.37676300
O           9.87090700     12.52582300     10.57506800
H           9.20786600     11.88177000     10.80091700
H          10.67584300     12.01814700     10.33186700
          26
 G =       -0.578300 Gcorr = 0.119850 a.u. Nimag =   0 Frame:     6 Step:    12 Geom:    12
C          11.70432300     15.52050000     11.74454100
C          11.81720900     16.76327700     11.12175700
C          13.73281400     15.72535400     10.81089300
N          12.92521600     14.87273900     11.55376400
H          13.09479100     13.89568200     11.76714000
H          10.89161100     15.06635100     12.26718900
H          11.10442800     17.55896200     11.04421000
H          14.73185500     15.48274600     10.48982500
N          13.07354100     16.87074800     10.53857500
P          12.16710000     14.47688000      7.95943600
O          13.49450100     13.92190000      8.23479900
O          11.02224700     14.11428700      9.00885100
H          11.42699800     13.61841600      9.81500800
O          12.03736000     16.04670700      7.79600200
H          12.49441600     16.50756800      8.62356000
O          11.57646900     13.94652600      6.58292200
H          10.68213600     14.43653600      6.41199000
O          14.71556300     11.28726500      7.89164100
H          15.55373600     11.43395000      8.32701500
H          14.34329600     12.17764700      7.77565900
O          12.09414600     12.45463200     11.28837800
H          11.49021000     12.01157300     11.87759600
H          12.36161800     11.76206600     10.63612400
O          12.57284100     10.53127300      9.45552300
H          13.39668900     10.71582700      8.95541500
H          11.88489900     10.61060400      8.79219900
          26
 G =       -0.580034 Gcorr = 0.123377 a.u. Nimag =   0 Frame:     7 Step:    13 Geom:    13
C          12.09322700     14.51627600     11.80424100
C          12.08512700     15.76913500     11.19245100
C          14.00126400     14.82101500     10.66312100
N          13.31465600     13.92744700     11.47531800
H          13.59221700     12.97998300     11.70436100
H          11.35239100     14.01635000     12.39290000
H          11.32372400     16.52401600     11.18376400
H          14.97374200     14.62728300     10.23874300
N          13.27041300     15.94066800     10.48646000
P          11.71120400     14.77029500      7.66814900
O          12.48078800     13.52984100      7.52022100
O          10.74068800     14.85040500      8.92865700
H          10.81905400     13.98218200      9.49111100
O          12.51425600     16.13286200      7.72201700
H          12.86298600     16.29292600      8.71219200
O          10.76089800     14.97818800      6.41114000
H          10.28193000     15.88642000      6.52861100
O          14.98930600     12.73978300      8.60578900
H          15.41991500     12.33697900      7.85461200
H          14.18177700     13.14938400      8.23193900
O          10.93878800     12.33791700     10.37661700
H          10.58705600     11.75650900      9.69996300
H          11.86657400     12.07902900     10.46024700
O          13.74865800     11.48647200     10.68308300
H          14.21549200     11.87091400      9.90935100
H          14.16388300     10.64774400     10.85495600
          26
 G =       -0.580026 Gcorr = 0.123385 a.u. Nimag =   0 Frame:     8 Step:    14 Geom:    14
C          12.26006800     14.73854000     11.76200400
C          12.34108800     15.92987800     11.04217800
C          14.11847600     14.74568700     10.50427700
N          13.39520000     13.99981700     11.42617200
H          13.59001800     13.05120900     11.72501800
H          11.50886500     14.36932500     12.42881200
H          11.65988700     16.75710600     11.00458500
H          15.04007100     14.41676100     10.05062300
N          13.49387600     15.91694500     10.26526500
P          11.66096700     14.69081700      7.64446600
O          12.29668800     13.37064400      7.56705500
O          10.77893100     14.97138500      8.94083700
H          10.80684900     14.14843700      9.57208400
O          12.59257400     15.96559300      7.53805200
H          13.02365000     16.16257300      8.48838000
O          10.66242700     14.89058000      6.42392000
H          10.28107700     15.84920200      6.48633200
O          14.77410700     12.41309100      8.58779900
H          15.11482300     11.90357700      7.85561700
H          13.99147500     12.87345200      8.22031600
O          10.81764800     12.57659300     10.58923200
H          11.71896700     12.23190800     10.64929600
H          10.37296000     11.98227000      9.98206700
O          13.54513000     11.47209200     10.83017800
H          14.00022500     11.74123200     10.00256700
H          13.88396400     10.61129900     11.05287800
          26
 G =       -0.579015 Gcorr = 0.122726 a.u. Nimag =   0 Frame:     9 Step:    15 Geom:    15
C          12.84181600     13.97005700     11.75215400
C          12.06931700     15.07818100     11.40493200
C          14.07008300     15.40929700     10.54797100
N          14.11234100     14.19420800     11.22012100
H          14.85694100     13.51221400     11.14925900
H          12.59129800     13.08831100     12.30412000
H          11.03619100     15.28174600     11.61431100
H          14.90449700     15.83109300     10.01533400
N          12.84295100     15.95908600     10.65911200
P          11.79702800     14.60085200      7.69442800
O          12.71867500     13.48997600      7.96679700
O          10.41009500     14.57749700      8.47016800
H          10.48260900     13.98112800      9.32077000
O          12.34935400     16.06870300      7.89726600
H          12.28798300     16.32283900      8.92705800
O          11.37910400     14.59191500      6.16110400
H          10.77363600     15.41547400      5.99996900
O          15.15962300     12.86967300      9.42778900
H          15.81151600     12.50627300      8.83270400
H          14.46875600     13.25857500      8.86124900
O          10.48556500     12.86851400     10.74151500
H          11.27747500     12.33647800     10.51756800
H           9.75708200     12.25307600     10.69848600
O          12.60931600     11.32913300      9.84328300
H          13.43869200     11.82467000      9.85628700
H          12.33807300     11.38104300      8.91625700
          26
 G =       -0.580251 Gcorr = 0.121562 a.u. Nimag =   0 Frame:    10 Step:    17 Geom:    17
C          12.07060100     14.65432000     11.77856000
C          11.87445100     15.88526700     11.15356500
C          13.94994400     15.28422400     10.72911000
N          13.38967700     14.28469600     11.51261400
H          13.82153400     13.41235900     11.78720000
H          11.40070900     14.04014000     12.34257500
H          10.99428700     16.49510600     11.09924400
H          14.95361200     15.25703900     10.34102800
N          13.04566600     16.26124800     10.50772100
P          12.13376400     14.88524800      7.61013800
O          13.23295600     13.93184500      7.81650500
O          10.85846300     14.73727800      8.55164000
H          10.95972500     13.91992100      9.17939000
O          12.47842000     16.42457000      7.70958500
H          12.75548600     16.63469800      8.71838400
O          11.55345500     14.75360900      6.13461300
H          10.83900200     15.48814300      6.00972400
O          13.08789000     11.26336800      8.66866200
H          13.50464000     10.75520800      7.97724900
H          13.09726000     12.18957900      8.33569500
O          11.05588700     12.37098200     10.19937100
H          11.92018200     12.27961000     10.61629900
H          11.05881500     11.68864700      9.51639900
O          13.84363600     11.68038900     11.27327700
H          13.72101200     11.48982100     10.32402900
H          13.99894100     10.84270100     11.69744200
          26
 G =       -0.579846 Gcorr = 0.120749 a.u. Nimag =   0 Frame:    11 Step:    19 Geom:    19
C          12.00374200     14.73470500     11.79594800
C          11.93249000     16.03440300     11.29884300
C          13.87767300     15.22184000     10.66326500
N          13.24221400     14.22820800     11.39765500
H          13.54998000     13.27096100     11.51608900
H          11.29771900     14.15882500     12.35711300
H          11.14688200     16.75768600     11.37968600
H          14.84346300     15.10452900     10.20024800
N          13.09703500     16.32057100     10.59429300
P          12.09318800     14.85172100      7.71143600
O          13.23150400     14.03040700      8.13929700
O          10.69261000     14.58167300      8.41449300
H          10.80522300     13.92214800      9.20442900
O          12.26633000     16.42102200      7.81844000
H          12.62988700     16.64325200      8.79381900
O          11.76883900     14.63883000      6.16790300
H          11.00967200     15.29256500      5.91432200
O          14.08266400     11.31161800      8.27826500
H          13.43850400     10.89702000      7.70293300
H          13.97457800     12.26256900      8.09262200
O          10.75915400     12.55821800     10.48322900
H          10.29325200     11.80685100     10.12335200
H          11.66155300     12.24929000     10.63922000
O          13.44136300     11.57030200     10.90915700
H          13.70578000     11.47271800      9.96490300
H          13.81471700     10.81808400     11.35905500
          26
 G =       -0.579844 Gcorr = 0.123370 a.u. Nimag =   0 Frame:    12 Step:    21 Geom:    21
C          14.33534400     15.21236900     10.87355100
C          13.49487900     16.24908400     10.46857200
C          12.19513700     14.64094900     11.22633900
N          13.50469600     14.20207200     11.36087800
H          13.81557900     13.26569400     11.60364600
H          15.40093600     15.12077000     10.85749300
H          13.73515900     17.20211200     10.04083300
H          11.32966000     14.05821300     11.50836700
N          12.17508600     15.87950300     10.68996200
P          11.25670600     14.32664900      7.77301200
O          12.62455500     13.80772100      7.81985000
O          10.20512800     13.59302800      8.72137700
H          10.70160100     12.93384000      9.34408100
O          11.02580000     15.86167100      8.08281600
H          11.18962600     16.02848300      9.11801900
O          10.63719800     14.17924400      6.31628200
H           9.69638800     14.60764500      6.33210800
O          15.16036600     13.69089000      8.41876500
H          14.80882600     13.35045500      7.58358300
H          14.59676700     14.46779700      8.59325300
O          11.58027500     11.74552000     10.46322000
H          11.37921300     10.89535100     10.07470400
H          12.54195400     11.83673200     10.37582700
O          14.42157400     12.02580700     10.40502700
H          14.65161300     12.62081900      9.64346300
H          15.11594700     11.37759600     10.44497800
