%nproc=24
%mem=50GB
#p M062X/6-311+G(2d,p) nosymm em=GD3 counterpoise=2

Title Card Required

0 1
C           7.98594200     12.72276500     14.01328700       1
C           6.94908200     11.83256200     14.32430300       1
C           5.65621900     12.33271500     14.45765000       1
C           5.42946500     13.69668600     14.27737100       1
C           6.51772200     14.52016000     13.96780800       1
N           7.76992800     14.04045500     13.84229400       1
H           4.82918800     11.66570200     14.69936200       1
H           9.02603700     12.38163200     13.89192400       1
H           7.15616100     10.77471200     14.45593100       1
H           4.43172000     14.11368500     14.37332900       1
H           6.40153300     15.59889900     13.81088300       1
O          10.71145000     12.95588900      8.78141900       2
H          10.35151900     12.30705900      9.39688000       2
H          11.66401200     12.87830300      8.88369700       2







