%nprocshared=24
%mem=50GB
#p opt freq b3lyp/6-311+g(2d,p) scrf=(smd,solvent=water) em=gd3bj

Title Card Required

0 1
 C                 -0.26120500    0.68116100   -0.00002500
 C                 -0.26019500   -0.72907700   -0.00006000
 C                  0.95095600   -1.42443100    0.00001400
 C                  2.12518700   -0.68454600    0.00013500
 C                  2.10570800    0.72309200    0.00016600
 C                  0.91147000    1.43125800    0.00007300
 H                  0.96764900   -2.50779700   -0.00010600
 H                  3.07915600   -1.19805600    0.00013400
 H                  3.04349600    1.26544700    0.00020700
 H                  0.89183100    2.51394000    0.00005700
 H                 -1.97685700    1.96954300   -0.00036000
 C                 -2.31467200   -0.12191900    0.00040900
 H                 -3.39369000   -0.11011000    0.00049500
 N                 -1.59564400    1.03423200   -0.00020100
 N                 -1.56936800   -1.20368900   -0.00047000

