%nprocshared=24
%mem=50GB
#p M052X/6-31G* scrf=(smd,solvent=water)

Title Card Required

0 1
 C                 -0.26083100    0.68139800   -0.00002100
 C                 -0.25876100   -0.72942400   -0.00005800
 C                  0.95208700   -1.42381000    0.00000900
 C                  2.12552800   -0.68372500    0.00012800
 C                  2.10565700    0.72288100    0.00016100
 C                  0.91178400    1.43068900    0.00007200
 H                  0.97037600   -2.50687600   -0.00010800
 H                  3.07938600   -1.19657800    0.00012700
 H                  3.04309600    1.26503100    0.00020200
 H                  0.89364400    2.51311500    0.00005700
 H                 -1.97790300    1.96892300   -0.00035600
 C                 -2.31715900   -0.12227000    0.00039600
 H                 -3.39578300   -0.11110200    0.00047000
 N                 -1.59662000    1.03372900   -0.00020000
 N                 -1.56947200   -1.20329300   -0.00044500

