%nproc=24
%mem=50GB
#p M062X/6-311+G(2d,p) nosymm em=GD3 counterpoise=2

Title Card Required

0 1
O          11.29773700     -0.97045800     17.64729800         1
H          12.10654800     -0.47934100     17.86651200         1
H          11.16105700     -0.74961800     16.72148300         1   
O          11.66087000      4.91775300     19.63979400         2
H          12.23623600      5.67059900     19.60910600         2
H          12.12288400      4.21369700     19.10651100         2


