          38
 Energy =     -0.54119500 a.u.  #Cluster:    1
C           9.07405700      2.37651000     17.20496300
C           9.32533700      1.73621200     18.41510700
C          10.67489800      3.53281000     18.28423100
N           9.90806300      3.49052300     17.15280400
H           8.41344800      2.09711300     16.39882700
H           8.91133900      0.81785500     18.80950000
H          11.45326200      4.26546300     18.50907200
C           9.97816600      4.44881600     16.06545100
H           9.37833200      5.34653900     16.29310200
H          11.02979300      4.75378800     15.86618400
H           9.60620600      3.99695700     15.11819400
N          10.31115700      2.47076000     19.07137900
C          10.88461500      2.14860300     20.37842100
H          10.05512600      2.10905000     21.12347700
H          11.56858200      2.97785200     20.69749200
C          11.64955200      0.81402200     20.36338500
H          11.68704700      0.41447700     21.39714600
H          11.09539100      0.04783600     19.77345500
C          13.06862300      0.95463400     19.81842300
H          13.66301000      0.04743700     20.04702100
H          13.60386600      1.80272900     20.28395800
C          13.00673700      1.12619100     18.30165800
O          13.07257100      2.29996400     17.85519300
O          12.85805400      0.10684100     17.61076700
P          11.72448100      1.48689600     14.65799200
O          10.31963300      1.29518400     15.03492200
O          12.72330100      0.29249100     14.92114100
H          12.82538700      0.17564500     15.98497500
O          11.83940100      1.75321100     13.09062300
H          12.84326200      1.86236200     12.87207300
O          12.39036000      2.79067300     15.28527300
H          12.72798600      2.57533500     16.26773700
O          10.09523600     -0.64300300     17.58339800
H          11.06147200     -0.55598000     17.64819100
H           9.91681200     -0.33845600     16.68822800
O          13.25196900      4.30104700     19.57238100
H          14.07049600      4.76139100     19.44337300
H          13.28299700      3.53022000     18.94050500
          38
 Energy =     -0.54111100 a.u.  #Cluster:    2
C           9.23165700      2.23523800     16.97845500
C           9.20199000      1.37627400     18.07253600
C          10.29788200      3.24870200     18.67964300
N           9.91650600      3.38223500     17.37565900
H           8.85960600      2.08876100     15.97337900
H           8.81124700      0.37017400     18.15677800
H          10.85350200      3.97834200     19.26861900
C          10.28611700      4.50524800     16.53406000
H          11.36576500      4.75472600     16.67863300
H          10.16195700      4.25652100     15.45787600
H           9.68436600      5.39844100     16.77344200
N           9.85556700      2.02540200     19.11991800
C          10.19595900      1.44632700     20.41760000
H           9.34973900      0.79990900     20.75427000
H          10.30131500      2.26499600     21.16780000
C          11.49127900      0.61535600     20.34892200
H          11.66019900      0.14835600     21.34036000
H          11.35980600     -0.24211400     19.64632800
C          12.71621900      1.43111100     19.94297200
H          13.64153400      0.95214200     20.32235200
H          12.70024900      2.44819200     20.37125200
C          12.82118900      1.49171300     18.41614300
O          12.70344200      2.62391800     17.88279000
O          12.98233300      0.43103900     17.79857400
P          12.00923600      1.43404400     14.58717500
O          10.66034600      0.89366300     14.77008000
O          13.22198200      0.53270600     15.06352000
H          13.18433400      0.45734800     16.12445500
O          12.30781700      1.68729600     13.04355500
H          13.27073500      2.05565500     12.97471500
O          12.24127400      2.86910000     15.23591700
H          12.49834200      2.75252100     16.25824600
O          10.45501500     -0.88024300     17.38414300
H          11.35755600     -0.57328100     17.57138600
H          10.34901800     -0.66497800     16.45127000
O          12.65105100      5.01489000     19.01604200
H          13.50228800      5.43146700     18.99675800
H          12.78159100      4.12880200     18.59440600
          38
 Energy =     -0.53946300 a.u.  #Cluster:    3
C           9.54981200      0.99631700     17.19825700
C           9.99944400      0.78236800     18.49950200
C           9.80148300      3.01243500     18.18730300
N           9.42162600      2.37860400     17.02284300
H           9.34979100      0.27776100     16.39323900
H          10.24597600     -0.15043100     18.98298400
H           9.88163700      4.09535600     18.35407900
C           8.96664400      3.04681400     15.80150100
H           9.82494700      3.19568500     15.08971400
H           8.24885800      2.39804900     15.24650900
H           8.49843900      4.01889500     16.00730200
N          10.14509400      2.03761400     19.10653600
C          10.59512200      2.31959700     20.49034900
H           9.77168500      2.03920600     21.18812200
H          10.75402400      3.43089100     20.58838200
C          11.88647500      1.57979700     20.86504400
H          11.97130600      1.56461000     21.97230100
H          11.84238300      0.51191000     20.55718300
C          13.13891200      2.22518800     20.27240500
H          14.04956300      1.78130100     20.72622400
H          13.18058000      3.30943000     20.49952400
C          13.18869700      2.00119100     18.76820900
O          13.02387600      3.03530200     18.03161700
O          13.35442500      0.84983000     18.32174300
P          12.38229100      1.49384300     14.90445300
O          11.09891800      1.85683500     14.24395700
O          12.10490500      0.43830000     16.09634400
H          12.79624200      0.40700100     16.91397900
O          13.45616800      0.78165200     13.87940600
H          14.39934500      1.08328400     13.96198900
O          13.30439800      2.66985600     15.48967300
H          13.24834100      2.89912200     16.57088500
O           8.78161900      0.44256900     14.42656300
H           8.64343000     -0.27344700     13.82163300
H           9.63521200      0.87473400     14.14585400
O          11.51667700      4.93861900     19.17305900
H          11.83762800      5.82907700     19.12256900
H          12.20404300      4.37083300     18.70879800
          38
 Energy =     -0.53939000 a.u.  #Cluster:    4
C           9.26575800      2.46258300     16.84422300
C           9.17176900      1.48193000     17.82743700
C          10.21057000      3.27900900     18.72927700
N           9.91489800      3.56576300     17.41530700
H           8.98482900      2.39855000     15.79382500
H           8.79887000      0.46145500     17.74705300
H          10.73607800      3.94246500     19.42957700
C          10.33326800      4.78573000     16.72020200
H          11.01082200      4.52215700     15.86461000
H           9.46914100      5.34572500     16.32932100
H          10.93110600      5.44050900     17.39120900
N           9.75843400      1.99745000     18.99237000
C          10.05776200      1.23685700     20.22550700
H           9.19466200      0.56381900     20.44701600
H          10.14723000      1.94521000     21.08085100
C          11.34029900      0.40488800     20.06317200
H          11.46790800     -0.22366000     20.96771700
H          11.21493400     -0.32155200     19.21794600
C          12.59809400      1.24125600     19.82856300
H          13.48152600      0.72255000     20.25986400
H          12.55169900      2.21839000     20.34442700
C          12.86782300      1.44245700     18.34159600
O          13.07743300      2.62426500     17.92997100
O          12.87141400      0.44217000     17.58646700
P          12.05655300      1.68354900     14.71857400
O          10.68675000      1.20544800     15.01336000
O          13.31261200      0.71625200     15.05068900
H          13.41856600      0.41422800     16.06654400
O          12.30848000      2.02198300     13.13529000
H          13.25657300      2.17200800     12.86868500
O          12.44094000      3.09202500     15.44840400
H          12.92190300      2.99977800     16.40674700
O          10.39863400     -0.79628900     17.11275900
H          11.33694700     -0.71237100     17.36002000
H          10.34228900     -0.39661900     16.22170100
O          12.40775200      4.90306300     19.12662600
H          13.09129300      5.46034900     19.46900900
H          12.86439700      4.12662300     18.69411000
          38
 Energy =     -0.53877300 a.u.  #Cluster:    5
C           9.14547900      1.37950400     16.78606300
C           9.37376600      0.93320000     18.08456900
C           9.93245000      3.11143400     17.98871800
N           9.47998400      2.73095500     16.75541400
H           8.82103500      0.83391300     15.91337200
H           9.25378900     -0.05286600     18.50803000
H          10.30897300      4.10043700     18.26056400
C           9.37809400      3.60501700     15.60153600
H          10.23428800      4.31460200     15.55758100
H           9.41891900      3.01663500     14.65711800
H           8.43526200      4.17796100     15.62510900
N           9.85488300      2.01952200     18.81363400
C          10.24129000      1.99191200     20.22467600
H           9.36813700      1.63269000     20.81895200
H          10.46049500      3.03608600     20.56934000
C          11.46173200      1.08904200     20.47334700
H          11.44392400      0.74989500     21.52894600
H          11.39342700      0.15681000     19.86583900
C          12.78493800      1.79409500     20.18588700
H          13.63107000      1.21743700     20.61055100
H          12.82553200      2.79534100     20.65314800
C          12.97784400      1.89942800     18.67413800
O          12.63867200      2.98126300     18.12882500
O          13.41952000      0.90682200     18.07661400
P          12.40190800      1.60851900     14.85628700
O          11.14924700      0.86263800     15.02316400
O          13.72841300      0.94257700     15.39495300
H          13.67009400      0.91334900     16.46812600
O          12.68979800      1.85508600     13.30798200
H          13.58755900      2.36202700     13.24123900
O          12.35780300      3.08731000     15.44550400
H          12.54636200      3.05472900     16.49010700
O          11.29773700     -0.97045800     17.64729800
H          12.10654800     -0.47934100     17.86651200
H          11.16105700     -0.74961800     16.72148300
O          11.66087000      4.91775300     19.63979400
H          12.23623600      5.67059900     19.60910600
H          12.12288400      4.21369700     19.10651100
          38
 Energy =     -0.53808600 a.u.  #Cluster:    6
C           9.23301500      2.10698900     16.73163200
C           9.12944700      1.28322300     17.84809300
C          10.08613400      3.21865900     18.49080400
N           9.82776000      3.29511900     17.15220200
H           8.96908400      1.91244900     15.70077900
H           8.75523700      0.27391700     17.93396600
H          10.55189500      3.99001600     19.10435300
C          10.21682200      4.41397200     16.31381600
H           9.53478000      5.27043500     16.45085300
H          11.25430700      4.74323100     16.56700900
H          10.23153500      4.12431000     15.24098400
N           9.65373000      1.99183200     18.92959400
C           9.88236300      1.47260900     20.27627100
H           9.04654700      0.78016300     20.53954500
H           9.84926600      2.31724300     21.00409600
C          11.22691000      0.72875200     20.38300000
H          11.30613700      0.29502900     21.40054000
H          11.23372800     -0.15111800     19.69590600
C          12.43853800      1.61315600     20.09965300
H          13.33875800      1.20591600     20.60316100
H          12.30741600      2.63731100     20.48816900
C          12.72450100      1.64073700     18.59487800
O          12.57380500      2.74341400     18.00961600
O          13.05245900      0.58364400     18.04197800
P          12.31369700      1.40301500     14.72033300
O          10.98685500      0.78948900     14.81575900
O          13.53081500      0.59601000     15.33467800
H          13.40561100      0.56018000     16.39111400
O          12.72666300      1.61338000     13.19678500
H          13.67143800      2.03214600     13.19131200
O          12.40912000      2.87314200     15.32255600
H          12.55274000      2.80897800     16.37243200
O          10.72318800     -0.99749000     17.41683700
H          11.56961100     -0.60372300     17.68169600
H          10.66582500     -0.76641300     16.48426800
O          12.26514000      5.20331100     18.95116400
H          13.09087800      5.66513800     19.01467900
H          12.49425400      4.30183000     18.61551700
          38
 Energy =     -0.53721900 a.u.  #Cluster:    7
C           9.13416200      1.51575100     17.21496300
C           9.45166800      1.09606900     18.50422100
C          10.25406400      3.17964700     18.23726700
N           9.62644800      2.80934000     17.07660900
H           8.61910100      0.99005500     16.42052900
H           9.26418200      0.15408800     18.98318400
H          10.77357300      4.12556400     18.41225700
C           9.53732100      3.63933100     15.88941900
H           8.78172000      4.43275700     16.01984200
H          10.52064300      4.10399100     15.65187700
H           9.25862600      3.03069700     14.99871400
N          10.13392400      2.14425500     19.12285000
C          10.60853100      2.14812600     20.50624500
H           9.74690100      1.90646300     21.17220000
H          10.94407400      3.18378500     20.77821000
C          11.75710500      1.15046800     20.73509800
H          11.74758200      0.83191600     21.79674500
H          11.60035100      0.22197700     20.14214300
C          13.12180000      1.74465000     20.39076500
H          13.93532600      1.13853000     20.83527200
H          13.24202000      2.76768700     20.78966800
C          13.27268300      1.73245000     18.86953700
O          12.93720600      2.78470000     18.25836900
O          13.66729200      0.68865800     18.34130800
P          12.25195300      1.12719500     15.21050400
O          10.88629800      0.66933400     15.51105800
O          13.45066000      0.25222500     15.72507800
H          13.54350800      0.40705000     16.79883100
O          12.43842900      1.15591100     13.62261700
H          13.40403800      1.45762400     13.42839100
O          12.52706700      2.63693200     15.62076700
H          12.76829600      2.68590800     16.66146800
O           8.48802000      1.00453700     13.91893700
H           8.66979400      0.73754400     13.02171800
H           9.31937200      0.82673900     14.38935800
O          12.24697900      4.90023100     19.67574600
H          12.88588100      5.58927700     19.55179300
H          12.60342800      4.11853900     19.16647800
          38
 Energy =     -0.53614900 a.u.  #Cluster:    8
C           9.77610800      0.77122700     17.12269400
C          10.20292300      0.63495900     18.44248000
C           9.49223700      2.74859600     18.15505600
N           9.34024700      2.08124200     16.96949000
H           9.78139000      0.04759300     16.31463900
H          10.67538400     -0.20540900     18.92390900
H           9.28453400      3.80429400     18.33117100
C           8.87057500      2.69249400     15.74004800
H           9.61178600      3.43699900     15.36405100
H           8.75557100      1.93212000     14.93529600
H           7.89969000      3.19351700     15.88825600
N          10.00683100      1.86396700     19.06715700
C          10.27535200      2.18390400     20.47052300
H           9.45786300      1.74622500     21.09140900
H          10.23223600      3.29735200     20.60361600
C          11.64083800      1.66377200     20.94919200
H          11.65942500      1.68838500     22.05755000
H          11.78118800      0.59651100     20.67069100
C          12.79899800      2.48735700     20.39470000
H          13.75240600      2.20229300     20.87947400
H          12.66200700      3.56746100     20.58951300
C          12.94529600      2.23242300     18.89230900
O          12.94101000      3.24909500     18.15274700
O          13.01714800      1.05635900     18.51037700
P          12.68722400      1.65561300     15.04825000
O          11.21869500      1.65679700     14.93220700
O          13.29571400      0.47452500     15.90301900
H          13.19875900      0.71008300     16.94777200
O          13.30905900      1.42167400     13.59512500
H          14.33581300      1.44219800     13.69444600
O          13.33366900      3.01250700     15.52440600
H          13.18618100      3.10893200     16.59052800
O           9.34362000     -0.27878700     13.91409400
H           9.80835500     -0.90865600     13.36902100
H          10.02563200      0.36933300     14.15447200
O          10.95498900      4.89149800     18.89191900
H          11.26442500      5.77437200     18.73086800
H          11.70684700      4.30717400     18.59755600
          38
 Energy =     -0.53562200 a.u.  #Cluster:    9
C           9.82810600      0.80512600     17.27434700
C          10.17392000      0.46464100     18.58059200
C           9.58874200      2.63826400     18.55226500
N           9.47737200      2.14954800     17.28122800
H           9.83315300      0.19762800     16.37250400
H          10.57538900     -0.45659700     18.96715800
H           9.41294700      3.66681500     18.85986500
C           9.13064300      2.95579700     16.12572200
H           9.98125200      3.63561300     15.86616100
H           8.93757200      2.31823300     15.23704600
H           8.24104200      3.57658000     16.32118500
N           9.99780300      1.60540100     19.36047700
C          10.31258700      1.73578200     20.78198100
H           9.69868000      0.99624200     21.35051600
H          10.00910400      2.75042600     21.13330500
C          11.80820800      1.50742900     21.06949700
H          11.96752500      1.56141800     22.16501600
H          12.10391500      0.47504100     20.77444900
C          12.70669000      2.51518700     20.36152900
H          13.72191200      2.51608100     20.80642400
H          12.33312800      3.54960800     20.46905100
C          12.87255300      2.18084000     18.87606800
O          13.08255300      3.15523500     18.11294200
O          12.76690400      0.99733400     18.52290300
P          12.73633900      1.56513100     15.00365700
O          11.34001700      1.93464600     14.72229200
O          12.89566500      0.28907300     15.92876600
H          12.88142500      0.58185100     16.95538200
O          13.43378700      1.11666800     13.63911400
H          14.41537400      0.88630900     13.85641100
O          13.67630700      2.70701500     15.54823200
H          13.44638400      2.88408900     16.58834900
O           9.21576500      0.04194100     14.22423100
H           9.59838900     -0.69630300     13.75572700
H           9.94003000      0.69037900     14.26828600
O          10.93023600      4.78643100     17.89602600
H          11.26338300      5.58491200     17.50072300
H          11.72521500      4.20018800     17.96060900
          38
 Energy =     -0.53548400 a.u.  #Cluster:   10
C           9.58670400      1.64850900     17.77025700
C          10.09174300      1.09415800     18.94497600
C          10.47521300      3.31191000     18.99240600
N           9.84007100      3.01384100     17.82015900
H           9.10683600      1.16505800     16.92542700
H          10.16184900      0.06158100     19.24281200
H          10.83125100      4.29418500     19.29516800
C           9.56729600      3.98002200     16.77255300
H          10.52055700      4.26329100     16.25851400
H           8.89220100      3.55330300     16.00048100
H           9.11028000      4.89648400     17.18014600
N          10.61731500      2.14157400     19.69787000
C          11.31483200      2.02068900     20.97686100
H          10.61495300      1.56978800     21.72114000
H          11.57575500      3.03954600     21.34980800
C          12.58818900      1.16174800     20.86699300
H          13.03182400      1.06090300     21.87775800
H          12.32872000      0.12626300     20.54969800
C          13.61432100      1.74685100     19.90336500
H          14.60984200      1.28658200     20.06325000
H          13.75810700      2.83108100     20.06036300
C          13.23330800      1.48491100     18.44275600
O          13.62477600      2.33949100     17.61106500
O          12.55679600      0.47919000     18.18278100
P          11.81972400      1.27821700     14.80495600
O          10.67544000      2.19045200     14.96040300
O          11.72708200     -0.04268400     15.67367500
H          12.08831700      0.15486400     16.66033400
O          11.84297300      0.73092700     13.30506000
H          12.66208800      0.11013900     13.21736300
O          13.25237400      1.90621800     15.00058600
H          13.41626700      2.07248900     16.05518800
O           7.84936000      1.56989400     14.86751400
H           7.73639800      0.83056600     14.27520500
H           8.79324400      1.78621200     14.79121700
O          12.37868800      4.72935000     17.90980000
H          12.89627700      5.34045500     17.39639400
H          12.83904900      3.86194400     17.78573200
          38
 Energy =     -0.53512200 a.u.  #Cluster:   11
C           9.13122500      2.36798700     17.10488100
C           9.19577700      1.50349900     18.19383500
C          10.46361400      3.30761100     18.65479200
N           9.90795300      3.48093400     17.41874300
H           8.63524900      2.24732400     16.15338100
H           8.76324100      0.51999400     18.32517700
H          11.16783700      3.97600700     19.14288800
C          10.09585400      4.64563700     16.57450500
H          10.94129800      4.48904600     15.86120500
H           9.19080400      4.84967300     15.97749600
H          10.36152600      5.53882400     17.17248100
N          10.01006700      2.10856500     19.14872200
C          10.35524900      1.55292700     20.45701900
H           9.40761000      1.27427600     20.97862200
H          10.84807500      2.34337800     21.07180300
C          11.27447700      0.32402700     20.35058800
H          11.23818800     -0.23098800     21.30973900
H          10.88587400     -0.38993600     19.58714500
C          12.71807000      0.69283000     20.02142000
H          13.39416700     -0.16098000     20.22763100
H          13.08422100      1.53570000     20.63082600
C          12.80977300      1.03509100     18.53347900
O          12.75642000      2.25025500     18.23072600
O          12.87592600      0.09153300     17.73086000
P          12.07511900      1.68180800     14.77546800
O          10.63314500      1.48744600     14.94492200
O          13.00575800      0.42951300     15.03666100
H          13.01813300      0.24815500     16.09147500
O          12.41112600      2.11413500     13.27980100
H          13.43978600      2.18358200     13.20600200
O          12.69852400      2.86778200     15.63495300
H          12.75808300      2.56072700     16.65874100
O          10.18238500     -0.78153600     17.23242100
H          11.12445500     -0.64317400     17.43066300
H          10.09333900     -0.40819500     16.35029200
O          12.77250000      5.00532300     17.56461500
H          13.20003700      5.00943600     16.70513200
H          12.89513600      4.09178300     17.87092500
          38
 Energy =     -0.53361800 a.u.  #Cluster:   12
C           9.91452300      4.07622300     17.84495400
C          10.85017000      3.91849800     18.86373900
C          10.06497300      1.88298700     18.32215600
N           9.44368000      2.80384500     17.52620300
H           9.58983300      4.96818300     17.33493600
H          11.47169100      4.65126500     19.34207700
H           9.91005900      0.78536300     18.28425400
C           8.60136500      2.46879700     16.39260700
H           7.95885600      3.32129700     16.10555800
H           9.23815300      2.22362500     15.50517700
H           7.98274900      1.57761600     16.60091900
N          10.91913600      2.55417200     19.15507300
C          11.90495200      1.95917500     20.06203500
H          12.13237800      2.69672400     20.86470500
H          12.86338400      1.81335400     19.48515700
C          11.44730100      0.62168600     20.66889400
H          11.56747900      0.65413100     21.76965000
H          10.36336400      0.45046400     20.50302700
C          12.23643300     -0.55912800     20.10355900
H          11.90373900     -1.50865300     20.56346200
H          13.31618500     -0.46953400     20.31850400
C          12.01388500     -0.66330300     18.59108800
O          12.99152200     -0.59914500     17.83756200
O          10.81997200     -0.77567800     18.21499000
P          12.99199000      2.57893500     16.06460000
O          11.95651000      3.47623200     16.59497500
O          12.52503000      1.48630800     15.01676800
H          11.67786100      0.96742100     15.37266700
O          14.05871500      3.42080400     15.23239400
H          14.81332500      2.77395600     14.95000100
O          13.86655200      1.86705700     17.17049000
H          13.55488500      0.85950300     17.31318900
O          10.32222600      0.02953800     15.79559400
H          10.57988500     -0.34573400     16.71022000
H          10.37948900     -0.73122000     15.22468300
O           9.80355500      4.62223100     14.89980400
H          10.55143700      4.28208500     15.41588400
H          10.17278200      4.80092200     14.03847500
          38
 Energy =     -0.53271000 a.u.  #Cluster:   13
C           8.33014100      2.83003700     18.56379700
C           9.01065700      2.87425400     19.77437600
C          10.52854400      3.01350700     18.11572400
N           9.28563000      2.92700300     17.55179600
H           7.27953400      2.72996900     18.36633000
H           8.63572400      2.82012100     20.77865500
H          11.48428600      3.08328600     17.57939000
C           9.00220300      2.88113600     16.12983400
H           9.04242500      1.82636600     15.75843200
H           8.00453200      3.28969800     15.90426300
H           9.75616700      3.45795300     15.54724200
N          10.36757900      3.00848900     19.47862100
C          11.45146900      2.95093400     20.46028100
H          11.16573100      3.56660300     21.34261200
H          12.37022500      3.42517500     20.02152400
C          11.74515200      1.49700500     20.87956200
H          12.03415900      1.47649200     21.94802800
H          10.82369200      0.87955700     20.79877900
C          12.84613800      0.86420900     20.03468800
H          13.07639600     -0.15863200     20.39026100
H          13.79468700      1.43164400     20.11492600
C          12.44144400      0.75805200     18.56324200
O          13.36820700      0.83152500     17.73220000
O          11.22747700      0.66518400     18.29928700
P          12.51433600      2.13357700     14.52898100
O          12.46146000      3.34302300     15.35673500
O          11.07004100      1.61061400     14.09540700
H          10.74223100      0.89117600     14.77585900
O          13.20656200      2.43755100     13.12919000
H          13.20017300      1.56017300     12.58480800
O          13.25942400      0.85688200     15.07315000
H          13.26724700      0.85866300     16.15455500
O          10.09444700     -0.13328900     16.04926800
H          10.52720200      0.17371600     16.90102500
H          10.46600800     -0.99898800     15.90559900
O          13.77172300      3.62125800     18.08163100
H          13.73455200      3.93893300     17.17483700
H          13.85241800      2.65714500     17.97513400
          38
 Energy =     -0.53265100 a.u.  #Cluster:   14
C           8.47489100      2.82622600     18.63915200
C           9.15164100      2.72892000     19.84832100
C          10.67452500      3.06036400     18.21806900
N           9.43340400      3.03758600     17.64761400
H           7.42433200      2.75266200     18.42906800
H           8.77428000      2.56531400     20.83935100
H          11.64137000      3.18782000     17.69263800
C           9.16591400      3.13732600     16.22447500
H           9.77576600      3.94258400     15.76119100
H           9.43947000      2.17839100     15.71203000
H           8.10281800      3.34189500     16.02630300
N          10.51169800      2.88268100     19.56963200
C          11.59605100      2.72990100     20.54171500
H          11.41708500      3.43166000     21.38696700
H          12.56191200      3.03019900     20.05290600
C          11.69942400      1.27573600     21.04628000
H          12.02629100      1.27937100     22.10439400
H          10.70229400      0.78838400     21.04032500
C          12.67067000      0.43983300     20.21317300
H          12.67129800     -0.61324400     20.54940300
H          13.70814800      0.80592500     20.30554700
C          12.23571600      0.50292400     18.74483100
O          12.65701700      1.48440700     18.09222300
O          11.44031900     -0.35313400     18.33392000
P          12.65403100      1.89064300     14.51462500
O          11.83566200      3.08955700     14.74596600
O          11.83655700      0.56999800     14.18359600
H          11.12611200      0.41316300     14.93896700
O          13.55040200      2.07260300     13.20839400
H          14.08948000      1.19901700     13.08640900
O          13.71238300      1.50013800     15.61479200
H          13.24246000      1.44890400     16.57717100
O           9.97521100      0.09870200     16.21910300
H          10.59123000      0.00641600     17.02031100
H           9.64848300     -0.78586100     16.09509800
O          11.89178000      5.10499000     16.80649100
H          12.76527400      5.49070100     16.82832400
H          11.91461800      4.51729800     16.03126100
          38
 Energy =     -0.53173700 a.u.  #Cluster:   15
C           8.50847000      3.13706000     18.62135900
C           9.24980000      3.08608800     19.79607200
C          10.66660600      2.82752800     18.06285300
N           9.40335400      2.97378200     17.56424800
H           7.45290700      3.27053900     18.47901400
H           8.93032000      3.16610100     20.81716200
H          11.59636300      2.64813700     17.48100700
C           9.06150600      2.96433300     16.15357800
H           7.97359100      3.02819900     15.99961000
H           9.55037700      3.81302300     15.62578300
H           9.42583800      2.02494000     15.66801000
N          10.58428000      2.90263100     19.43000400
C          11.70274400      2.72969600     20.35826800
H          11.59501100      3.46253200     21.18828700
H          12.65784000      2.98037800     19.81964300
C          11.76654800      1.28650900     20.89907900
H          12.00704500      1.30699000     21.97923600
H          10.77363400      0.79541500     20.82208200
C          12.80200200      0.44036500     20.15813100
H          12.80256100     -0.59881200     20.53476700
H          13.82496000      0.83121300     20.29587400
C          12.44580000      0.43773300     18.66700600
O          12.93268000      1.36845400     17.98656400
O          11.63989200     -0.41355100     18.26828300
P          12.64406000      1.90752200     14.45693500
O          11.75924700      2.98946200     14.91530400
O          11.89391200      0.58635300     13.99596700
H          11.24871300      0.28675600     14.77030300
O          13.42698600      2.33932400     13.13749600
H          14.02168700      1.53915700     12.86334600
O          13.79506100      1.44308000     15.42755600
H          13.41741400      1.36689800     16.42989100
O          10.21860000     -0.20607700     16.08706700
H          10.81464000     -0.20804800     16.90484100
H          10.00022000     -1.12534000     15.97798900
O          11.55434200      5.04339500     16.97591000
H          11.67444000      4.46268400     16.20873500
H          12.37657400      5.52555200     17.03277500
          38
 Energy =     -0.52954100 a.u.  #Cluster:   16
C           8.36692900      2.51267200     18.52884800
C           9.10793100      2.61665200     19.69900400
C          10.49807200      2.96007500     17.95823000
N           9.24259500      2.74116600     17.46452800
H           7.32639900      2.28731000     18.38773700
H           8.80412000      2.49819300     20.72187500
H          11.40673400      3.13506100     17.37580100
C           8.89318800      2.68328200     16.05768300
H           8.83831200      1.61869600     15.71287800
H           7.92298600      3.16862400     15.86653100
H           9.66671400      3.17598200     15.42880000
N          10.42167500      2.91199300     19.32791200
C          11.57279300      3.00435700     20.22473100
H          11.32484100      3.70820300     21.05224800
H          12.43203900      3.45580900     19.65908700
C          11.97167700      1.62797600     20.78695400
H          12.61224600      1.78285100     21.67865600
H          11.07701700      1.08013600     21.15296400
C          12.71081200      0.76171400     19.76927600
H          13.22035700     -0.08161400     20.27298100
H          13.49267700      1.32916400     19.23427800
C          11.70127400      0.19059900     18.76903500
O          11.55165900      0.88373900     17.70565400
O          11.06938400     -0.81966600     19.02324100
P          12.80279800      2.02948300     14.70200600
O          12.24481800      3.32875500     15.10043500
O          11.80896500      1.04598300     13.94960500
H          11.14373700      0.62101000     14.64036800
O          13.97289900      2.22348300     13.64142200
H          14.29500500      1.27987500     13.36659100
O          13.48200500      1.20085400     15.86733700
H          12.76163300      1.04545400     16.64391900
O          10.02518100     -0.07998100     15.84254400
H          10.53576800      0.22095400     16.66741400
H          10.02227300     -1.02818800     15.91691900
O          13.25597000      4.64218800     17.64056600
H          12.94989900      4.38694600     16.75604400
H          14.18663500      4.42021300     17.62593800
          38
 Energy =     -0.52012400 a.u.  #Cluster:   17
C           9.24971100      3.37255900     18.12985100
C           9.08443300      2.61413300     19.28210100
C          11.21152700      3.35779900     19.23372600
N          10.56569300      3.83145800     18.12535500
H           8.55249200      3.58485600     17.33113100
H           8.22549600      2.07657300     19.63723500
H          12.26892100      3.48944000     19.46593700
C          11.20002000      4.62003700     17.08615700
H          10.64026400      4.54784100     16.12891100
H          11.27055200      5.68165500     17.37488300
H          12.22738000      4.23173700     16.87561100
N          10.30370100      2.63326500     19.96593300
C          10.61940500      1.86101700     21.16684300
H           9.71766400      1.83623700     21.82311000
H          11.42154300      2.38583700     21.73751200
C          11.06503100      0.42770200     20.82219900
H          11.12936200     -0.15740100     21.76139200
H          10.29061700     -0.08452700     20.20629800
C          12.40043300      0.38122800     20.08617700
H          12.86373800     -0.61996600     20.18285700
H          13.13029300      1.09977300     20.48635200
C          12.15616700      0.63517500     18.58485600
O          12.53790300      1.74865500     18.14467800
O          11.55606700     -0.23985400     17.96196100
P          13.05970600      2.10769600     14.54032200
O          12.02266800      3.15046000     14.63617100
O          12.58418500      0.68578200     14.03299800
H          11.75510300      0.36419500     14.61191900
O          14.14906700      2.51504500     13.44809400
H          14.84836600      1.75280400     13.42442200
O          13.93227100      1.87237200     15.83236600
H          13.30430600      1.78239800     16.69620600
O          10.40185800     -0.02797200     15.54499200
H          10.83261800     -0.15559800     16.43149800
H           9.91195900      0.79053300     15.62839500
O           9.23124200      2.67310500     15.21728000
H          10.17437600      2.82969600     15.01707300
H           8.85388700      2.41425100     14.37723300
