          37
 Energy =  -1314.65426330 a.u.  #Cluster:    1
C           6.94434000     12.24113800      6.18678200
C           6.54302400     11.94457500      4.86342300
C           5.70845800     12.83425100      4.20415600
C           5.28357900     13.99732100      4.86286600
C           5.72504300     14.26809600      6.14681000
H           5.38841700     12.64238400      3.17875100
H           7.57920600     11.52565800      6.75370600
H           4.61760000     14.69858400      4.35877000
H           5.43646400     15.17873300      6.68133800
C           7.08356800     10.71815000      4.23823500
H           6.59198900     10.44356100      3.29926000
H           8.16956100     10.84472900      4.01948900
H           7.04064300      9.84104100      4.91102600
N           6.55714400     13.38778200      6.78766100
C           7.11494000     13.73772800      8.11443600
H           6.29393500     13.73750900      8.86562900
H           7.83078800     12.93003700      8.44293400
C           7.87566900     15.07478300      8.08824200
H           7.18214900     15.93104500      8.03031600
H           8.40690700     15.17449300      9.06375900
C           8.90756400     15.15042000      6.96139000
H           8.45042000     15.44616600      6.00308800
H           9.68217500     15.90609100      7.18579600
C           9.58392900     13.77870200      6.81323700
O           9.18780200     13.08023700      5.84634400
O          10.38843500     13.43164800      7.68360800
P          10.07054200      9.97673200      7.05127000
O           8.68811300      9.75099700      7.50514600
O          10.81343300      8.57440700      6.90332200
H          11.78017500      8.77810400      6.59880700
O          10.18397200     10.62777500      5.61220900
H           9.85345500     11.65705300      5.67083800
O          11.00456800     10.80161000      8.02387400
H          10.80340600     11.84608100      7.88845400
O           6.38918800     11.05794300      8.87266800
H           7.15840400     10.57823000      8.52528400
H           6.09100900     10.52623000      9.60708200
          37
 Energy =  -1314.65393150 a.u.  #Cluster:    2
C           7.06482900     12.65751100      5.95723100
C           6.97115700     12.36377700      4.57699200
C           6.64139200     13.38626400      3.69886500
C           6.40451700     14.67545000      4.19656400
C           6.53075000     14.92940800      5.55162700
H           6.57497400     13.19707800      2.62586400
H           7.29376600     11.85833900      6.69238300
H           6.13623600     15.48404500      3.51535500
H           6.38011600     15.92818500      5.97357400
C           7.28052900     10.98860100      4.13281200
H           8.38338400     10.82290200      4.13541400
H           6.88820900     10.21282200      4.81893500
H           6.91992400     10.75389700      3.12593800
N           6.86350900     13.91598100      6.41175700
C           7.10532200     14.21768700      7.84142900
H           6.15105300     14.53874300      8.31337400
H           7.41512000     13.27030300      8.37157100
C           8.21381000     15.26719400      8.03731600
H           7.85131900     16.28111300      7.79407500
H           8.46772100     15.28335100      9.12318200
C           9.48401300     14.95696800      7.24471000
H           9.41873100     15.31892300      6.20515400
H          10.36128900     15.45707000      7.69459700
C           9.72744200     13.44020500      7.25033100
O           9.44648100     12.84242500      6.18118000
O          10.09147300     12.91326100      8.30617600
P           9.35006100      9.57526000      7.32474100
O           7.87862600      9.55346800      7.30226900
O           9.90289500      8.08053700      7.30938600
H          10.93420400      8.13987800      7.33482800
O          10.02140900     10.24246400      6.05559100
H           9.85040100     11.30761700      6.09244800
O          10.01426900     10.20935400      8.61336000
H          10.08164500     11.26936600      8.49087100
O           6.04339400     11.33625700      8.73202200
H           6.58900900     10.66817800      8.28222300
H           6.12703900     11.10613900      9.65586400
          37
 Energy =  -1314.65337890 a.u.  #Cluster:    3
C           6.85508500     12.40761400      6.07221400
C           6.57830500     12.21749800      4.69893900
C           5.92456700     13.22548600      4.00424000
C           5.55040800     14.39710200      4.67659500
C           5.86091400     14.55617700      6.01670700
H           5.70937000     13.11691500      2.93973500
H           7.34941500     11.60817200      6.66637700
H           5.02912800     15.19221800      4.14211100
H           5.60900200     15.46765000      6.56832900
C           7.04589700     10.97052400      4.05740600
H           6.55524900     10.74965900      3.10381500
H           8.14162500     11.02799800      3.85957000
H           6.93344400     10.08125800      4.70736300
N           6.51308500     13.55984300      6.69368800
C           6.93931500     13.78105200      8.09396300
H           6.04046200     13.83910100      8.74564500
H           7.51811400     12.87510800      8.45099500
C           7.83321200     15.02309700      8.24686500
H           7.23814300     15.95183100      8.20217800
H           8.27451100     14.99015300      9.27066400
C           8.97161800     15.07725200      7.22747800
H           8.64130100     15.50011000      6.26427300
H           9.79218900     15.72450900      7.58802400
C           9.52289300     13.66056200      7.00849700
O           9.15477200     13.09494900      5.94756400
O          10.20881200     13.15770200      7.90381300
P           9.85519400      9.83568400      6.75536700
O           8.42539100      9.59819300      7.02211400
O          10.58604100      8.44444100      6.49234700
H          11.58294900      8.65711800      6.31974500
O          10.14756100     10.68126800      5.45071700
H           9.80194900     11.69526200      5.61907500
O          10.68006300     10.48071800      7.94119500
H          10.53889800     11.54279800      7.92375900
O           6.84440400     10.98586000      9.03593300
H           7.32676900     10.42157100      8.40451700
H           7.23995900     10.76356500      9.87818900
          37
 Energy =  -1314.65322280 a.u.  #Cluster:    4
C           6.95013800     12.22054100      6.21375300
C           6.42030400     11.91730100      4.93691300
C           5.45559800     12.75413800      4.39938700
C           5.03041900     13.87440100      5.13013100
C           5.59514100     14.15461700      6.36196100
H           5.03146900     12.55582600      3.41382700
H           7.70385500     11.55028900      6.68101700
H           4.26403500     14.53379200      4.72133700
H           5.30676000     15.03198600      6.94930900
C           6.97204800     10.74153700      4.22939800
H           7.00659600      9.83896500      4.86821400
H           6.43445100     10.48134900      3.31183300
H           8.03622700     10.92350200      3.95089200
N           6.55422900     13.32478400      6.88315200
C           7.22535700     13.68688900      8.15266900
H           6.47712200     13.67474400      8.97606900
H           7.98157200     12.89264300      8.41593200
C           7.95335300     15.03872100      8.05298600
H           7.23842800     15.87931100      8.04615700
H           8.56197200     15.15847400      8.97968500
C           8.88512700     15.12662100      6.84305500
H           8.34161000     15.40131800      5.92420200
H           9.65606700     15.90388100      6.99485000
C           9.58231400     13.77140800      6.64934500
O           9.13275200     13.06001300      5.71484400
O          10.45569600     13.44485800      7.45822700
P          10.19050400      9.98017700      6.83386000
O           8.85710700      9.72804500      7.40348000
O          10.94896500      8.59462600      6.62204700
H          11.88167300      8.81959200      6.23663600
O          10.16876600     10.63294400      5.39099300
H           9.82665600     11.65509000      5.47987600
O          11.18954500     10.82579100      7.72146300
H          10.93080400     11.86078500      7.63664800
O           6.55230000     10.99886800      8.80014000
H           7.32621500     10.53566900      8.44078800
H           6.23483400     10.42652700      9.49493100
          37
 Energy =  -1314.65264420 a.u.  #Cluster:    5
C           6.71612400     12.25414500      6.26727200
C           6.28658100     11.84918000      4.98275800
C           5.52496200     12.72893100      4.22626700
C           5.19488500     13.98562500      4.75214500
C           5.65421700     14.35496100      6.00528800
H           5.19128600     12.45401400      3.22401100
H           7.30135100     11.56638500      6.91269500
H           4.59011800     14.68127000      4.16902600
H           5.44019900     15.33773600      6.43760700
C           6.71512300     10.52459400      4.48603500
H           6.10382500     10.13919900      3.66330400
H           7.76731800     10.57400500      4.12026100
H           6.73956700      9.75068400      5.27716700
N           6.41162100     13.48425700      6.74295800
C           6.99361700     13.92433100      8.03087300
H           6.17652000     14.07864300      8.76858800
H           7.63406800     13.08840700      8.44971400
C           7.86631500     15.18209200      7.88344000
H           7.24456300     16.08867100      7.77991600
H           8.43329400     15.30625200      8.83589200
C           8.86569800     15.09605400      6.72971800
H           8.40403300     15.36564100      5.76524400
H           9.70373700     15.80101800      6.88244700
C           9.43146200     13.67041900      6.65015800
O           8.94061000     12.94416600      5.74840200
O          10.25385500     13.32029900      7.50164200
P           9.94740200      9.84149200      6.87460100
O           8.60829400      9.55321400      7.41456900
O          10.74327700      8.47631500      6.66826900
H          11.67445000      8.72407800      6.29462200
O           9.95370800     10.50704600      5.43856100
H           9.59532100     11.52371400      5.52713700
O          10.89868600     10.69652100      7.80599900
H          10.68039700     11.73575700      7.67135200
O           7.27456700     11.25555700      9.37060300
H           7.67355500     10.59653300      8.77296300
H           7.84540000     11.22881900     10.13850000
          37
 Energy =  -1314.65249460 a.u.  #Cluster:    6
C           7.27617500     12.87022600      5.66004600
C           6.52396200     12.26217400      4.63645800
C           5.15799200     12.08203500      4.81897000
C           4.56866000     12.50406700      6.01480100
C           5.35106500     13.06118800      7.01600400
H           4.55267500     11.60237000      4.04872900
H           8.37065100     13.04806800      5.50917200
H           3.49916400     12.36976600      6.17993000
H           4.92664100     13.33935400      7.99060400
C           7.23936200     11.78106100      3.43175200
H           8.15714900     12.35640500      3.21780200
H           7.58845100     10.73780300      3.59432900
H           6.62294400     11.78434800      2.52590000
N           6.69670300     13.23764300      6.82707600
C           7.51513100     13.70960100      7.97009900
H           6.87105100     13.75650000      8.88264300
H           8.26773300     12.91117000      8.21897200
C           8.20190200     15.06391800      7.75706100
H           7.45911900     15.82968300      7.46519100
H           8.59096900     15.37729600      8.75615300
C           9.37373400     15.08548400      6.77534000
H           9.03242600     15.28444100      5.74413400
H          10.06659700     15.91287000      7.02268600
C          10.18378800     13.78022200      6.81253500
O          10.29105400     13.20663400      5.69431500
O          10.60156400     13.35340200      7.89120800
P           9.35029600     10.21524800      6.78829600
O           7.95879600     10.69254900      6.62948600
O           9.35229000      8.62330600      6.83827100
H          10.33776500      8.32886900      6.95740200
O          10.35343900     10.60697200      5.64951000
H          10.44736500     11.72155900      5.64764300
O           9.99994100     10.63473300      8.17900600
H          10.35194300     11.62960500      8.10619300
O           6.18192100     11.35433100      8.81859600
H           6.74255100     11.01834700      8.09534500
H           6.36704700     10.76677600      9.54835200
          37
 Energy =  -1314.65174300 a.u.  #Cluster:    7
C           6.81735100     12.51814300      6.03593500
C           6.85102400     12.20413600      4.65906200
C           6.59262200     13.21074700      3.73587500
C           6.27971300     14.49956900      4.18410900
C           6.23468100     14.76504000      5.54301200
H           6.64399400     13.00366600      2.66486800
H           7.05341500     11.74951400      6.80586600
H           6.08240200     15.29801100      3.46746500
H           6.00427700     15.76137400      5.93516600
C           7.18901700     10.82849000      4.23692100
H           7.03092000     10.07167000      5.02878200
H           6.63790700     10.49577600      3.34986300
H           8.27287600     10.75039200      3.99410800
N           6.49526900     13.77014300      6.44627100
C           6.49347900     14.08835500      7.88863000
H           5.49183400     14.47877100      8.17409600
H           6.62478600     13.12836400      8.47703500
C           7.59391600     15.08380400      8.30462600
H           7.21142100     16.12015000      8.25031900
H           7.81731200     14.89451500      9.38281400
C           8.90005000     14.98521900      7.52121600
H           8.81479900     15.44587800      6.52227200
H           9.70602900     15.53396400      8.04662700
C           9.33329400     13.52002400      7.37492100
O           9.12766700     13.00896500      6.24961100
O           9.78845400     12.94078200      8.37176100
P           9.81752100      9.70333100      7.00163400
O           8.40937900      9.50087700      7.36365200
O          10.52965800      8.31408300      6.68673000
H          11.51690200      8.52417400      6.46315000
O          10.05695900     10.55200500      5.68202000
H           9.74704400     11.55888400      5.87624700
O          10.74293400     10.35393800      8.11501800
H          10.44223100     11.36385700      8.24224600
O           7.45599800     11.62522300      9.34688800
H           7.59855700     10.74318700      8.98259700
H           8.32432400     12.05500200      9.23859500
          37
 Energy =  -1314.65143090 a.u.  #Cluster:    8
C           6.96579300     12.38790500      5.98362800
C           6.65574100     12.28541700      4.60718800
C           5.96815100     13.32350400      3.99850200
C           5.60328500     14.44542000      4.75766200
C           5.96555200     14.52850900      6.09125400
H           5.71953300     13.28088700      2.93695500
H           7.46339600     11.54654700      6.50662100
H           5.05038400     15.26270100      4.29340100
H           5.72798900     15.40317300      6.70527300
C           7.14872200     11.09428100      3.88118700
H           6.66747900     10.93473800      2.91079000
H           8.24444400     11.18715900      3.70086600
H           7.05032800     10.16125000      4.46620900
N           6.65106300     13.50032600      6.68348200
C           7.14482400     13.64775300      8.07209000
H           6.27569000     13.65538700      8.76788800
H           7.75284400     12.73946200      8.34839100
C           8.03068400     14.89454200      8.24286900
H           7.42398800     15.81627100      8.26423900
H           8.51610300     14.82336700      9.24470500
C           9.12413300     15.00679700      7.17935000
H           8.74088200     15.43001000      6.23671700
H           9.93416100     15.67853500      7.51814000
C           9.71386500     13.61191600      6.91837200
O           9.26507700     13.01729100      5.90500200
O          10.51236800     13.15440400      7.74021200
P           9.80499600      9.77750000      7.09511400
O           8.54667000      9.70700400      7.85043600
O          10.33329500      8.30209400      6.80205200
H          11.22881200      8.39753300      6.29584300
O           9.65334300     10.41392800      5.64936400
H           9.62384300     11.48863700      5.72786000
O          11.03033200     10.48577400      7.79586200
H          10.85997700     11.54626700      7.79095500
O           5.95369100     11.10242600      8.35425600
H           6.78206000     10.60344300      8.26724200
H           5.34652200     10.48786500      8.76002800
          37
 Energy =  -1314.65079360 a.u.  #Cluster:    9
C           6.96556200     12.37614400      6.00949100
C           6.60674400     12.29005300      4.64272100
C           5.80349000     13.27922400      4.10028900
C           5.37169900     14.33867100      4.91409400
C           5.77617500     14.40856500      6.23542700
H           5.51257000     13.24864600      3.04918800
H           7.57692800     11.57730400      6.47613200
H           4.72940400     15.11688900      4.50065800
H           5.48309200     15.23385100      6.89196400
C           7.17068200     11.16665000      3.86246800
H           6.73778400     11.05788100      2.86275900
H           8.27006800     11.30199800      3.73812800
H           7.07393500     10.19507300      4.38128000
N           6.57592900     13.42733600      6.76267700
C           7.09318600     13.56363500      8.14358800
H           6.23919400     13.53091900      8.85660700
H           7.73385200     12.66990800      8.39182700
C           7.94074500     14.83618900      8.31700100
H           7.30570200     15.73855400      8.34256400
H           8.43177900     14.77644800      9.31661700
C           9.02591500     14.98521200      7.24947200
H           8.62601600     15.40368400      6.31149900
H           9.81820700     15.67758800      7.58854900
C           9.65423600     13.60990100      6.97731000
O           9.23842600     13.02147200      5.94570200
O          10.44537500     13.15439700      7.80679700
P           9.89472200      9.76614900      7.00600500
O           8.59666200      9.61114400      7.67653100
O          10.50518900      8.32836900      6.68818400
H          11.42314500      8.48332800      6.23961600
O           9.81226900     10.46134500      5.58236300
H           9.70191200     11.52575100      5.70784800
O          11.04076200     10.49122300      7.81750300
H          10.83865500     11.54345700      7.82905400
O           5.99667400     10.97288200      8.23018500
H           6.83053800     10.48590600      8.12556100
H           5.39278600     10.33427500      8.60234800
          37
 Energy =  -1314.64175880 a.u.  #Cluster:   10
C           6.69344800     12.12498500      6.22344400
C           6.46720000     11.74756900      4.87738700
C           5.84958300     12.66817700      4.02261000
C           5.47253200     13.92593200      4.51150000
C           5.72259000     14.26557100      5.83803600
H           5.67456100     12.41458900      2.97422700
H           7.21220300     11.40300100      6.93199900
H           4.99105200     14.65146900      3.85113200
H           5.45651900     15.24873800      6.24220100
C           6.92488800     10.41880900      4.41497800
H           6.46448000     10.08871200      3.47748400
H           8.03175200     10.43439000      4.24639000
H           6.76689600      9.62434700      5.16445400
N           6.33798700     13.35819300      6.67670800
C           6.66564300     13.74384900      8.07674600
H           5.72653600     13.92222300      8.64330200
H           7.16671400     12.84580900      8.61203900
C           7.60621800     14.95102600      8.19055600
H           7.03025000     15.89644700      8.16142600
H           8.06140800     14.90232500      9.20987000
C           8.72972400     15.02096900      7.15655000
H           8.35878000     15.40225100      6.18367000
H           9.49919200     15.74936500      7.49042000
C           9.41308200     13.67908000      6.92837700
O           9.27475300     13.21343300      5.74538200
O          10.02207500     13.10181100      7.84856300
P           9.75713300     10.09930100      6.88453000
O           8.43813600     10.22042500      7.58387400
O          10.21481400      8.54276900      6.66083100
H          11.16779600      8.40538000      6.40375600
O           9.80159000     10.76663500      5.43761600
H           9.73122200     11.93777000      5.43584600
O          11.03816800     10.69344000      7.70100700
H          11.03141900     11.72299200      7.86863800
O           8.15728900     11.87363600      9.65114500
H           8.15703000     10.96811400      9.25947800
H           9.02535000     12.24648800      9.41384000
          37
 Energy =  -1314.63489090 a.u.  #Cluster:   11
C           7.56554100     13.34934200      5.69404700
C           6.73503000     12.41324900      5.05484000
C           5.54146700     12.02979100      5.66979200
C           5.24445000     12.52982300      6.93956100
C           6.10534700     13.43660700      7.54806400
H           4.87124800     11.31017100      5.18707200
H           8.53931500     13.62526900      5.23514700
H           4.36199200     12.17770200      7.47750400
H           5.92053000     13.80440500      8.56317900
C           7.19000000     11.81344500      3.77841800
H           7.11677300     12.50738900      2.93188500
H           8.24825600     11.48661500      3.85085900
H           6.62130800     10.90133300      3.51753200
N           7.23687400     13.85773900      6.90565000
C           8.10251500     14.82489700      7.62700700
H           7.44815000     15.56185400      8.14513400
H           8.64744200     14.25441100      8.44100000
C           9.11584100     15.56627700      6.74123200
H           8.76063900     15.63275600      5.69480800
H           9.17656300     16.62244700      7.08065300
C          10.52187800     14.95731000      6.78354500
H          11.07348500     15.16486200      5.84989900
H          11.11887700     15.39611500      7.60523800
C          10.43704800     13.44008300      6.99744900
O          10.24511700     12.73216800      5.98714000
O          10.47488300     13.04317300      8.17560100
P           8.36955400     10.29407900      7.58386400
O           7.07970600     10.77520700      7.05754200
O           8.18735000      8.77597800      8.04902800
H           9.08362800      8.46551000      8.45385000
O           9.54802200     10.21642600      6.53457300
H           9.88622500     11.21909100      6.29771900
O           8.87948700     11.03633500      8.88090600
H           9.61132000     11.77950000      8.60678900
O           5.75465100      9.05282600      4.97040700
H           6.16538900      9.57397500      5.67845500
H           6.20411600      8.21185900      5.01462500
