          41
 Energy =     -0.58966200 a.u.  #Cluster:    1
C           2.87489800      5.98413900      3.27736000
C           3.42000700      5.43946300      4.43784200
C           3.90979600      4.13637100      4.43658300
C           3.78484200      3.36259900      3.27852800
C           3.21366200      3.93357700      2.13557000
H           4.42104000      3.73659100      5.31957800
H           2.54146400      7.03643400      3.23758600
H           3.51682600      6.07201500      5.32945500
H           3.14716800      3.36956600      1.19762400
C           4.29927800      1.97190200      3.20872500
H           4.98436800      1.73722500      4.04304200
H           3.49768900      1.22457000      3.21421400
H           4.90830700      1.81433300      2.29785200
N           2.77417400      5.22650200      2.14434600
C           2.27624500      5.84888700      0.89330600
H           1.28788800      5.39539100      0.65240300
H           2.09069100      6.94100700      1.07341800
C           3.22619500      5.69662900     -0.31521500
H           3.52689200      4.63376700     -0.44444200
H           2.63973600      5.94246500     -1.22836100
C           4.46386000      6.59011100     -0.27613100
H           4.17510000      7.65764500     -0.20729800
H           5.03500300      6.49696400     -1.21702900
S           5.53087300      6.17630000      1.12225000
O           6.92635200      6.50998900      0.85490600
O           5.30239500      4.70595700      1.30503800
O           4.89034000      6.96939300      2.22003900
P           7.71409600      4.15214900      3.75554900
O           6.83723900      4.77806200      4.74226200
O           8.77286700      3.20389900      4.48006800
H           9.40478500      2.83220800      3.75533200
O           7.02422500      3.15944900      2.72827200
H           6.32605400      3.69782700      2.13947500
O           8.67001100      5.09765000      2.90398100
H           8.12723600      5.62684300      2.19521000
O           3.02954400      8.91493300      2.07558600
H           3.78293800      8.28162500      2.13143000
H           3.31326400      9.67075800      2.57802500
O           5.39275000      7.51773600      4.92788800
H           6.01735900      6.80901400      5.09538400
H           5.24254400      7.43806100      3.97034900
          41
 Energy =     -0.58959100 a.u.  #Cluster:    2
C           3.02266400      6.16752600      2.87383600
C           3.35703800      5.59567000      4.10071500
C           3.58406300      4.22751600      4.19927300
C           3.44042900      3.43022800      3.05767000
C           3.08007500      4.02876200      1.84766000
H           3.90516800      3.78720200      5.14933800
H           2.89024600      7.26019800      2.76404600
H           3.48859400      6.24587800      4.97371300
H           2.99907500      3.43563000      0.92968000
C           3.74347900      1.97660300      3.08237500
H           4.19836600      1.66059400      4.03619600
H           2.85971900      1.35355200      2.90711800
H           4.50001500      1.72275400      2.31335300
N           2.87077900      5.37676500      1.76880800
C           2.59490600      6.02134200      0.45938900
H           1.52818700      5.82899400      0.20380300
H           2.71410600      7.13006100      0.57828600
C           3.50142100      5.55104400     -0.70111200
H           3.59193800      4.44275200     -0.70325200
H           2.98285000      5.79837400     -1.65268600
C           4.89411100      6.17948200     -0.72234000
H           4.83988000      7.26910900     -0.88978100
H           5.48785200      5.77368100     -1.55969600
S           5.75142300      5.86340800      0.83895900
O           7.19938700      6.00973900      0.71121900
O           5.33462500      4.45220600      1.15135900
O           5.08677100      6.84482100      1.73981100
P           7.23967400      4.04620400      3.99788800
O           6.28065200      4.88703300      4.71496200
O           8.04349000      3.13176700      5.02836700
H           8.73968100      2.59530400      4.48918300
O           6.63066300      2.98233500      2.99531400
H           6.08730400      3.49592700      2.23188700
O           8.42632500      4.77606500      3.22769400
H           8.07645700      5.22629600      2.36004100
O           2.87351900      8.59692100      4.53353500
H           2.87415700      9.50457800      4.81182900
H           3.82765900      8.35242100      4.47926300
O           5.46396300      7.85078300      4.23721900
H           5.41834400      7.62225100      3.27717100
H           5.81095300      7.03823300      4.61790800
          41
 Energy =     -0.58952200 a.u.  #Cluster:    3
C           3.07343300      6.14521400      2.97413000
C           3.48196600      5.58681100      4.18419200
C           3.78312500      4.23157700      4.26612800
C           3.63695700      3.43230400      3.12663500
C           3.20041700      4.01624100      1.93425500
H           4.16313100      3.80527800      5.20082400
H           2.88455300      7.22831000      2.87355200
H           3.61187400      6.23891800      5.05648200
H           3.11466100      3.42289200      1.01676400
C           4.01339100      1.99581700      3.13146600
H           4.74853800      1.78198100      2.33027100
H           4.52362500      1.70054500      4.06382300
H           3.15528400      1.32957800      2.99087700
N           2.91985400      5.35169400      1.87076900
C           2.56174600      5.98603700      0.57625300
H           1.49798100      5.73805200      0.35899800
H           2.62652700      7.09898300      0.69684000
C           3.44806900      5.56924500     -0.61981800
H           3.59601600      4.46723400     -0.63273800
H           2.88250600      5.79355100     -1.55009600
C           4.80429700      6.26991100     -0.68772500
H           4.68727600      7.35601800     -0.84571600
H           5.38714400      5.89992900     -1.54898200
S           5.73372900      5.99099300      0.83908700
O           7.16672200      6.21044100      0.65884200
O           5.40013000      4.55876900      1.15685400
O           5.05313200      6.93238200      1.77008500
P           7.43850700      4.22271300      3.91746100
O           6.46894900      5.00798000      4.68183800
O           8.32824400      3.34050200      4.90456100
H           9.02556100      2.84203800      4.33137300
O           6.84258600      3.13876600      2.92863900
H           6.24376600      3.63164400      2.19352400
O           8.55481900      5.01827400      3.10833000
H           8.14763400      5.45868300      2.26078700
O           2.89854500      8.58426300      4.86574600
H           2.92279400      9.45797100      5.23685400
H           3.84119300      8.36612900      4.68569300
O           5.47155000      7.92041100      4.27437500
H           5.39137900      7.70471200      3.31491600
H           5.88839500      7.12721200      4.62385100
          41
 Energy =     -0.58747700 a.u.  #Cluster:    4
C           2.74812000      6.31663100      1.46946200
C           2.51536100      6.17401200      2.83630500
C           2.61593700      4.92314400      3.43516200
C           2.92139200      3.80868500      2.64535600
C           3.14217700      3.98366200      1.27656900
H           2.48814600      4.81586500      4.52055100
H           2.73184600      7.30503200      0.98657100
H           2.30977200      7.06723300      3.44261400
H           3.43968500      3.14303600      0.63911200
C           3.06815600      2.46555200      3.25776800
H           3.23493500      1.66394600      2.52807900
H           3.95317200      2.44869400      3.93290500
H           2.20053500      2.18668000      3.87082100
N           3.03840600      5.22094900      0.70569900
C           3.34061900      5.40805600     -0.73503500
H           2.49884300      4.97274200     -1.32082300
H           3.36623500      6.50468700     -0.95784700
C           4.67470000      4.78031900     -1.19465600
H           4.76896900      3.73784400     -0.81719000
H           4.63719200      4.68188000     -2.30147000
C           5.91262700      5.58396500     -0.81045900
H           5.89826500      6.58972300     -1.26490500
H           6.82525800      5.09499000     -1.19686600
S           6.04759100      5.75226400      0.98748100
O           7.44697500      5.97359500      1.35787900
O           5.50122500      4.44773900      1.49027400
O           5.10462100      6.86784900      1.27235600
P           6.86394000      4.67499300      4.72969000
O           6.02367400      5.81603200      5.08884300
O           7.38144500      3.93796800      6.04672900
H           7.99407300      3.16474400      5.74829800
O           6.15895300      3.48887500      3.94837500
H           5.88179400      3.81144800      2.97822800
O           8.22192100      4.98172700      3.96712400
H           8.01764200      5.40427000      3.03139700
O           3.25638300      6.71945700      5.76767700
H           4.02858600      6.20889900      6.03092200
H           3.61860100      7.30213800      5.08108000
O           4.60112000      8.16397300      3.68207100
H           4.74234000      7.78473300      2.78866400
H           5.36877700      7.84197000      4.16519200
          41
 Energy =     -0.57834300 a.u.  #Cluster:    5
C           4.64359100      3.71024000      3.62835600
C           4.59967400      2.33060700      3.43490300
C           3.53010200      1.75585300      2.75438300
C           2.49745300      2.57226300      2.29157300
C           2.56198700      3.95311200      2.52213900
H           3.51201500      0.68285900      2.56034100
H           5.50579800      4.19425800      4.12459400
H           5.43893300      1.72352200      3.77732500
H           1.78114000      4.62430200      2.13924500
C           1.37859000      2.04117800      1.47360200
H           0.39778500      2.41830000      1.78922300
H           1.52320400      2.35926400      0.41708500
H           1.32490100      0.94534400      1.47175700
N           3.61404800      4.49786500      3.19564500
C           3.70882400      5.96796400      3.37562800
H           3.02245300      6.26366700      4.20216900
H           4.74211600      6.22028300      3.72686300
C           3.41264200      6.78702500      2.10618500
H           2.45690600      6.47114500      1.64139700
H           3.25390300      7.84271500      2.43424600
C           4.53024600      6.77391600      1.07000200
H           5.44838800      7.24347000      1.47108700
H           4.25277400      7.40091200      0.20310800
S           4.91450800      5.11086400      0.46682300
O           5.62630900      5.25390900     -0.78978000
O           3.59695400      4.43015400      0.44103500
O           5.74690400      4.52266800      1.60768600
P           7.92191700      6.13543900      3.58493000
O           7.05378500      5.72034800      4.70706900
O           9.38866600      6.43988000      4.12808200
H           9.98310500      6.63340400      3.30686000
O           8.10631500      5.16371800      2.39342400
H           7.05630800      4.86489000      2.00583900
O           7.49103700      7.52281100      2.90606900
H           6.67168000      7.91796500      3.36890200
O           5.02238500      8.72611800      4.10038200
H           5.29480400      9.56207800      4.46932100
H           4.89593600      8.13668500      4.86074200
O           4.86512000      6.79915100      6.15107700
H           5.13468500      6.93345000      7.05738000
H           5.64211500      6.38641200      5.72330400
          41
 Energy =     -0.57829800 a.u.  #Cluster:    6
C           4.72684000      3.72351600      3.62892800
C           4.62305700      2.34936400      3.41590300
C           3.45699500      1.81355800      2.87808600
C           2.39163700      2.66324000      2.57671400
C           2.52255000      4.03651500      2.82165200
H           3.38514700      0.74557600      2.66893100
H           5.65705800      4.17338500      4.01480500
H           5.48545700      1.71636100      3.62969800
H           1.71461700      4.73274700      2.55882300
C           1.15681800      2.17349200      1.91442300
H           1.16428600      2.49791600      0.85057900
H           1.07092400      1.07952900      1.91276600
H           0.23953800      2.57425200      2.36401300
N           3.66923200      4.54365500      3.35525900
C           3.82296700      6.00694300      3.55316100
H           3.28552500      6.28862900      4.48770400
H           4.90460500      6.23444400      3.73653800
C           3.34741600      6.86461800      2.36599900
H           2.34023400      6.55230600      2.02248400
H           3.22191200      7.90526500      2.74525500
C           4.31793400      6.88944900      1.19111600
H           5.28065100      7.35528200      1.47766300
H           3.92385000      7.52727200      0.38023200
S           4.63705500      5.23838700      0.51735800
O           5.19181900      5.40581100     -0.81293500
O           3.33116400      4.54744400      0.64214500
O           5.60556700      4.64715700      1.54432100
P           8.09779700      6.15740200      3.26357000
O           7.69406900      5.53702100      4.54017500
O           9.59972700      6.67486000      3.38531000
H           9.89538400      6.98127400      2.44569900
O           8.05119800      5.32279000      1.95909800
H           6.95946100      5.00792800      1.75752800
O           7.26370500      7.47955800      2.89753800
H           6.70663800      7.79842500      3.68775400
O           5.38440400      8.30861700      5.08327000
H           5.91099900      8.85770300      5.66018600
H           5.31366800      7.45419900      5.53512300
O           5.36080500      5.66181400      6.11320600
H           5.60947900      5.43364000      7.00642600
H           6.18781500      5.56866500      5.59349600
          41
 Energy =     -0.57828500 a.u.  #Cluster:    7
C           4.76069200      3.67563700      3.67254300
C           4.68790000      2.29682100      3.48496200
C           3.56717600      1.73353400      2.88050900
C           2.51537100      2.56120300      2.48780800
C           2.61208200      3.94209100      2.71055800
H           3.52359500      0.66042600      2.69093100
H           5.65883000      4.14935300      4.10593000
H           5.54050200      1.67930700      3.77088000
H           1.81454100      4.62155600      2.38001600
C           1.33641600      2.04234600      1.75038000
H           1.41355200      2.35206900      0.68453600
H           1.26708000      0.94732500      1.75929700
H           0.38456100      2.43530000      2.12914600
N           3.71279700      4.47525300      3.31021600
C           3.83920800      5.94432900      3.48281300
H           3.23473700      6.24339500      4.37036900
H           4.90411300      6.18284500      3.73605700
C           3.43655400      6.77281200      2.24929500
H           2.44624500      6.45869200      1.86299500
H           3.30378600      7.82528000      2.59893000
C           4.46325000      6.77053700      1.12281000
H           5.40092000      7.26634600      1.43817300
H           4.09864700      7.37530000      0.27304200
S           4.84052200      5.10658700      0.51759900
O           5.47028200      5.24362700     -0.78278600
O           3.53546000      4.40344300      0.58168200
O           5.75068100      4.55391100      1.61467800
P           8.05794600      6.23442300      3.41788700
O           7.37270900      5.78945300      4.64718800
O           9.56194700      6.63467600      3.75916100
H          10.03292300      6.84132500      2.86424200
O           8.15326400      5.25765100      2.21786700
H           7.08874700      4.93497100      1.92320600
O           7.45642300      7.58069700      2.78581300
H           6.68902400      7.94137500      3.35240000
O           5.09144700      8.65803900      4.29224900
H           5.40537300      9.46144000      4.69928800
H           5.03234500      8.00972000      5.01107900
O           5.11831800      6.56394100      6.18974900
H           5.39535000      6.64149500      7.10037200
H           5.91468900      6.25147200      5.71613200
          41
 Energy =     -0.57410900 a.u.  #Cluster:    8
C           4.25640700      5.00048700      3.75298700
C           4.31488000      3.63491600      4.01614400
C           3.44816300      2.76694600      3.35538900
C           2.50361000      3.28559700      2.46726000
C           2.46508300      4.66795000      2.23540200
H           3.52881900      1.68970400      3.50615800
H           4.93742000      5.71589800      4.24136000
H           5.09325600      3.25968700      4.68946800
H           1.75320600      5.10253300      1.51864500
C           1.60358400      2.41556100      1.67138100
H           1.65060400      1.35865900      1.95996600
H           0.55276500      2.72680600      1.71599500
H           1.90896900      2.47223000      0.59917000
N           3.34768400      5.49481400      2.86135000
C           3.41341000      6.92920000      2.49891500
H           2.48426900      7.42801400      2.85332000
H           4.26590500      7.40714200      3.05132200
C           3.60444500      7.16694100      0.98801300
H           2.74976600      6.74668900      0.41326000
H           3.54803000      8.26482600      0.81666400
C           4.92713200      6.64857400      0.44145900
H           5.77271500      6.92978100      1.09963000
H           5.15359300      7.12348500     -0.53072700
S           4.95742400      4.84596600      0.19795400
O           5.85918200      4.58252300     -0.90777600
O           3.53658600      4.46316700      0.04106200
O           5.44730800      4.33695300      1.55482300
P           7.92525800      5.35529100      3.56788600
O           7.29568500      4.94250300      4.83762300
O           9.46858200      5.66895100      3.81843000
H           9.90673100      5.82895300      2.90053300
O           7.87384700      4.42275500      2.33863100
H           6.76020600      4.34846600      1.98299700
O           7.33267100      6.75190900      3.02219700
H           6.79070100      7.21766600      3.74368400
O           5.48463500      8.03686500      5.02387400
H           5.82249800      8.91628500      5.17450200
H           5.80963600      7.51847800      5.79077200
O           6.59668600      6.53807200      7.04926700
H           6.10352200      5.90059400      7.55818000
H           7.07512600      5.99817100      6.38283200
