%nprocshared=24
%mem=50GB
#p M062X/6-311+G(2d,p) nosymm em=GD3 counterpoise=2 scrf=(smd,solvent=water)

Title Card Required

0 1
 C                 -4.47057100   -1.08270700   -0.06284300              1
 C                 -3.44236300   -1.90877100    0.25566900              1
 C                 -2.65721900    0.15036800    0.16715700              1
 N                 -3.95872200    0.19877600   -0.11415200              1
 H                 -5.51027600   -1.28741000   -0.24983600              1
 H                 -3.41191000   -2.97481500    0.39851000              1
 H                 -1.98368100    0.99478000    0.20470200              1
 C                 -4.72144600    1.41016400   -0.41495600              1
 H                 -5.50409400    1.54018800    0.33018900              1
 H                 -4.04591100    2.26087800   -0.39164700              1
 H                 -5.16661400    1.31984500   -1.40397300              1
 N                 -2.31961000   -1.11878700    0.40317900              1
 C                 -0.95667800   -1.59339400    0.68062600              1
 H                 -1.03712100   -2.39207000    1.41759900              1
 H                 -0.41732400   -0.76504500    1.13213100              1
 C                 -0.27326500   -2.09458100   -0.59105600              1
 H                 -0.89996600   -2.86836100   -1.04124400              1
 H                 -0.19771600   -1.28254500   -1.31761000              1
 C                  1.09598600   -2.72301100   -0.34667900              1
 H                  1.41718300   -3.28662200   -1.22312000              1
 H                  1.09320200   -3.39804300    0.51104100              1
 S                  2.44812200   -1.56765900   -0.04773100              1
 O                  3.66386700   -2.38259700    0.07794800              1
 O                  2.49732300   -0.64531900   -1.22157900              1
 O                  2.12236500   -0.81766900    1.20160900              1
 P                  1.01412100    2.43863600    0.06676800              2
 O                 -0.41361100    2.54091500    0.45455500              2
 O                  1.25263800    1.66404300   -1.29073200              2
 H                  1.73553000    0.78450800   -1.22799100              2
 O                  1.58474100    3.90926100   -0.15085500              2
 H                  2.51490500    3.93678500   -0.42558700              2
 O                  1.98268600    1.80753000    1.14505200              2
 H                  2.01361800    0.80328800    1.17032300              2

