          19
 Energy =   -892.42730730 a.u.  #Cluster:    1
C          13.03428600     10.81702900      8.59199000
C          12.84356400     12.16892700      8.89803800
C          12.16506400     12.49693400     10.07140300
C          11.70045400     11.47748600     10.89831100
C          11.93192100     10.14729800     10.52178100
N          12.58674300      9.82829000      9.38986800
H          12.00070500     13.54088200     10.33706500
H          13.55928100     10.49751400      7.68444100
H          13.21671000     12.94286500      8.23446700
H          11.16821100     11.70159400     11.81830100
H          11.58635700      9.30233500     11.13849000
P          12.14129800      6.12561100      9.78923300
O          11.72261800      6.67405700     11.06933600
O          10.89542200      5.63967500      8.92877400
H          11.24226200      5.22091500      8.05681100
O          13.00756100      7.04352100      8.82386100
H          12.80870300      8.06035700      9.01861000
O          13.03379100      4.79540900      9.81391900
H          14.01505700      5.06930900      9.91531000
          19
 Energy =   -892.42721710 a.u.  #Cluster:    2
C          12.17978400     10.77765300     10.99248300
C          12.19002500     12.14328900     10.68753000
C          11.78948400     12.54434400      9.41347000
C          11.39450300     11.58174100      8.48796300
C          11.41109900     10.23354200      8.87080200
N          11.79422700      9.84430000     10.10123800
H          11.78696800     13.60057500      9.14575000
H          12.48772700     10.40151100     11.97494500
H          12.50440800     12.87171400     11.42846300
H          11.08081600     11.86307700      7.48693200
H          11.11340600      9.43089600      8.17779200
P          12.58635500      6.40818200      9.12525100
O          12.13694600      6.91134600      7.83407400
O          14.15053200      6.57299500      9.44433300
H          14.67632500      6.46329500      8.57881000
O          11.96341300      6.99327700     10.45780700
H          11.95671700      8.05399700     10.38333500
O          12.31530500      4.84663500      9.28442300
H          12.52196800      4.57763700     10.25460600
          19
 Energy =   -892.42473550 a.u.  #Cluster:    3
C          13.04636200     10.85337600      8.31025400
C          12.64369200     12.18903100      8.42384800
C          11.56224200     12.49101500      9.25026900
C          10.91845800     11.46298200      9.93527200
C          11.38184400     10.15140300      9.76796900
N          12.42417000      9.85726400      8.96867700
H          11.22503300     13.52154400      9.35965900
H          13.89097600     10.55364800      7.67821400
H          13.16512300     12.97061800      7.87941900
H          10.07490200     11.66830100     10.58738900
H          10.91513600      9.29915600     10.28393800
P          13.03053000      6.30009500     10.12910700
O          14.25602000      6.20913000     10.90229900
O          11.78142200      7.00439100     10.86485100
H          11.78107700      6.75767900     11.84742800
O          13.01831000      7.06675800      8.74633900
H          12.91484300      8.10783900      8.92887700
O          12.49031200      4.85790600      9.72287200
H          11.72956100      4.96787200      9.04332800
          19
 Energy =   -892.41639040 a.u.  #Cluster:    4
C          12.44360600     10.19446000      8.37654000
C          11.32945300     10.83524800      8.93403600
C          11.40893200     11.28246600     10.25097000
C          12.58836100     11.09166700     10.96800900
C          13.65764800     10.44478300     10.33749100
N          13.58777800     10.00178900      9.06558700
H          10.55562500     11.77193800     10.71823300
H          12.42921100      9.79655300      7.35520300
H          10.42367500     10.96226300      8.35169000
H          12.67491700     11.41699500     11.99985400
H          14.60123600     10.24644800     10.85926400
P          12.40722300      7.02757100     10.04319800
O          12.48056000      7.37512700     11.45205100
O          11.40434700      7.91469500      9.14904500
H          10.58736000      8.16847600      9.69441100
O          13.71280900      7.10329100      9.14052900
H          13.97248100      8.11345300      9.00511100
O          11.93853700      5.52561200      9.81890700
H          12.03625200      5.29717200      8.81987900
          19
 Energy =   -892.40805520 a.u.  #Cluster:    5
C          12.92120000     10.37569100      8.34662000
C          11.55487600     10.53783100      8.08451000
C          10.71432400     10.89684500      9.13743300
C          11.25651800     11.10236100     10.40468500
C          12.63216900     10.91241300     10.58230200
N          13.45084100     10.54717900      9.57530800
H           9.64250700     10.99712800      8.97502600
H          13.62537700     10.07420700      7.56519600
H          11.15891000     10.35264300      7.09243100
H          10.62467100     11.36650400     11.24632300
H          13.10788200     11.03062900     11.56131500
P          12.10974300      7.32734500      9.94292200
O          11.27589700      7.85510700     11.00526000
O          11.73378800      7.94728600      8.52093500
H          12.02154000      7.29906600      7.78087000
O          13.68876500      7.51879600     10.07949600
H          13.91218600      8.52914500     10.10687700
O          12.04051200      5.75655200      9.64684400
H          12.62830500      5.27327400     10.33565900
