          44
 Energy =  -1902.80925430 a.u.  #Cluster:    1
C           2.63045900      2.88105900      6.36700900
C           3.48508200      2.67388800      7.45055700
C           4.14517800      1.45905400      7.60002800
C           3.96633700      0.46389100      6.62694300
C           3.13186300      0.71850400      5.53844900
H           4.80602100      1.28475300      8.45758400
H           2.09244500      3.83552500      6.23771100
H           3.66577600      3.49668300      8.15032800
H           3.03068400     -0.00805000      4.72357500
C           4.68718200     -0.83138600      6.69846600
H           4.01695700     -1.69728800      6.65925500
H           5.40227100     -0.92383200      5.85330500
H           5.30463200     -0.92488400      7.60609200
N           2.44905700      1.89825400      5.43872700
C           1.54090500      2.13543500      4.29006000
H           0.64297600      1.49059100      4.42635100
H           1.17552800      3.19901800      4.31983500
C           2.17490300      1.86446700      2.91031100
H           2.71539900      0.89261500      2.90631000
H           1.34505100      1.73517400      2.18055400
C           3.09355700      2.97726100      2.41563500
H           2.54587600      3.93894000      2.34774400
H           3.44080100      2.76425300      1.38833600
S           4.51749800      3.18543200      3.50212100
O           5.58447800      3.89351400      2.80091800
O           4.82783400      1.80222400      3.95589800
O           3.92580000      4.00376300      4.62340000
P           7.50602300      1.95214600      6.36157000
O           6.43302100      2.56055800      7.15922700
O           8.54890500      2.90452000      5.65263700
H           8.06968600      3.78555800      5.30958900
O           8.44768700      1.05679800      7.29181000
H           9.22156000      0.71099800      6.70456600
O           7.06564200      0.90008700      5.26360300
H           6.21190100      1.26302000      4.75020500
O           7.32563900      5.19703000      4.70234500
H           6.64014100      5.40870400      5.35484300
H           6.83239700      4.87018900      3.92555400
O           1.62211300      5.38759700      4.43478900
H           2.51704900      4.97871700      4.50148500
H           1.76703900      6.31888900      4.55173600
O           5.17148200      5.26109000      6.71583900
H           5.63767800      4.49537300      7.06170000
H           4.65749100      4.88987300      5.97300700
          44
 Energy =  -1902.80874570 a.u.  #Cluster:    2
C           2.62229700      2.92374300      6.12655200
C           3.40840400      2.65864500      7.24876100
C           3.97725000      1.40292000      7.42680600
C           3.76539400      0.41622300      6.45118700
C           2.97693900      0.71462800      5.34084000
H           4.59641700      1.19199300      8.30566400
H           2.18379100      3.92567700      5.95629600
H           3.60008100      3.46437100      7.96689300
H           2.84322100     -0.01564700      4.53432100
C           4.41523900     -0.91532900      6.54256000
H           5.18676500     -1.01831400      5.74916200
H           4.95479100     -1.06077100      7.49080900
H           3.71134100     -1.74661800      6.42603300
N           2.39032800      1.94145800      5.20802000
C           1.52824600      2.24351400      4.03751200
H           0.53564800      1.77168100      4.22105800
H           1.36432300      3.35260800      3.99374800
C           2.08620200      1.77317500      2.67769100
H           2.52625100      0.75493500      2.75894400
H           1.22900700      1.65872300      1.97942100
C           3.10468500      2.72652000      2.06024100
H           2.65185000      3.70666100      1.82934000
H           3.47015900      2.33210600      1.09518000
S           4.50426300      2.97452500      3.17486400
O           5.60547300      3.61408200      2.45445500
O           4.77421300      1.60325700      3.69633900
O           3.90710400      3.85198500      4.23073700
P           7.27874900      1.90339400      6.24223800
O           6.16286900      2.59106100      6.90695800
O           8.40581800      2.77939800      5.56242300
H           7.98035400      3.61553400      5.07382000
O           8.11842500      1.06218200      7.31140800
H           8.92433500      0.65202400      6.81628900
O           6.90390200      0.78492400      5.18950100
H           6.08409900      1.11074200      4.59336700
O           7.33194900      4.98215500      4.26133400
H           6.62346600      5.28836100      4.84227600
H           6.86322800      4.59827800      3.49163300
O           2.60259600      5.62505500      7.33320200
H           2.47178900      6.55137000      7.49472700
H           3.49912900      5.56510600      6.92812700
O           5.03299300      5.29330000      6.15166500
H           5.45712400      4.54706600      6.59394600
H           4.58949300      4.85330200      5.37366200
          44
 Energy =  -1902.79731430 a.u.  #Cluster:    3
C           2.53936000      2.73754500      5.67338500
C           3.05325400      2.36472700      6.91757900
C           3.58752700      1.09680700      7.10427400
C           3.61587900      0.20291300      6.02175600
C           3.08961800      0.60434600      4.79515900
H           4.00954200      0.80580700      8.07168900
H           2.13465400      3.75336400      5.49777500
H           3.06528200      3.10312400      7.72927300
H           3.14484700     -0.05073600      3.91886500
C           4.26416200     -1.12843000      6.13756300
H           4.69648300     -1.29646200      7.13693200
H           3.58269500     -1.95804900      5.91908800
H           5.12231300     -1.19883900      5.43875900
N           2.53983500      1.84661200      4.64153800
C           1.99033400      2.26277600      3.32703300
H           0.99746300      1.77278000      3.20427500
H           1.81140600      3.37036700      3.34894400
C           2.89453800      1.92882300      2.12193700
H           3.33472700      0.91283600      2.22463100
H           2.25069500      1.87164400      1.21761700
C           4.00411600      2.94498000      1.87721600
H           3.59283600      3.93288600      1.60449100
H           4.62912800      2.63732300      1.01927700
S           5.05645200      3.13857700      3.33555600
O           6.30480400      3.77727100      2.90793000
O           5.19412300      1.74678800      3.86153300
O           4.20074100      3.95999700      4.23638700
P           7.06063700      2.03750800      6.98673700
O           6.53089300      3.32906500      7.42074600
O           8.32766000      2.00155700      6.03730100
H           8.40203200      2.89542600      5.48282100
O           7.54466300      1.18504700      8.24927500
H           8.01368200      0.34128700      7.89425000
O           6.02380100      1.03408500      6.33337700
H           5.81752400      1.30596000      5.32529000
O           8.50802300      4.28177700      4.47161000
H           8.14281700      5.02447500      4.95220300
H           7.82008200      4.08567900      3.79078000
O           1.73219400      5.09843500      7.20712400
H           1.42559000      5.96288400      7.45210400
H           2.69713000      5.21480400      7.03608200
O           4.35347400      5.31630800      6.57989100
H           5.01989700      4.77119700      7.00445600
H           4.32309000      4.94472800      5.66549600
          44
 Energy =  -1902.79409220 a.u.  #Cluster:    4
C           2.34370800      2.57894500      5.77273100
C           2.82552000      2.05106800      6.97113600
C           3.47642200      0.82267000      6.98466500
C           3.63498400      0.12285700      5.77985900
C           3.13102600      0.67647400      4.60144200
H           3.88940900      0.42121100      7.91574100
H           1.86999700      3.57878100      5.73716900
H           2.73012200      2.64475600      7.88998500
H           3.28624300      0.18006700      3.63659600
C           4.38212500     -1.15927900      5.71977200
H           5.24430000     -1.07397400      5.02815000
H           4.82518000     -1.42938200      6.69251800
H           3.76281400     -1.99910300      5.38501100
N           2.47821500      1.87616500      4.61292800
C           1.93897500      2.42971900      3.34743200
H           1.04855700      1.82370800      3.06263500
H           1.56130900      3.47415400      3.52848100
C           2.95187700      2.45287800      2.18555700
H           3.50680100      1.49147900      2.12238400
H           2.37369200      2.51381100      1.23683700
C           3.93263000      3.61811000      2.23756900
H           3.39458500      4.58662800      2.22384300
H           4.57124200      3.62553300      1.33489900
S           4.98353500      3.55993300      3.70575000
O           6.23024500      4.26287600      3.39711500
O           5.12556900      2.10508100      4.00485400
O           4.12197300      4.22898400      4.73070300
P           7.02225600      1.86891900      7.13776400
O           6.54515800      3.10857400      7.74477800
O           8.28990300      1.91333400      6.18709300
H           8.38780700      2.86458100      5.74516600
O           7.46932100      0.82579800      8.26333700
H           7.92521800      0.03358800      7.79250700
O           5.95308000      1.00613100      6.34696100
H           5.75221700      1.43737900      5.39925200
O           8.52584400      4.37750900      4.92797800
H           8.22768200      5.05352500      5.53690400
H           7.80007200      4.33200000      4.26179400
O           1.73462100      5.42974700      4.46428100
H           2.66221700      5.10580500      4.56476000
H           1.69899500      6.22758800      4.97979500
O           3.90862400      4.69475900      7.47007700
H           4.73053000      4.29991100      7.76866900
H           3.98540400      4.62670300      6.50312800
          44
 Energy =  -1902.79331500 a.u.  #Cluster:    5
C           2.01766600      2.67924500      5.33842700
C           2.46141600      2.71069300      6.65995300
C           3.27110900      1.69366500      7.15333600
C           3.59487900      0.61516400      6.31808700
C           3.13106000      0.61233300      5.00066200
H           3.67329900      1.75337100      8.17419100
H           1.42962300      3.50620200      4.91295600
H           2.20069300      3.57333300      7.28899800
H           3.42355700     -0.17928400      4.30175600
C           4.44782200     -0.50586000      6.78904500
H           3.89153900     -1.44596500      6.88326600
H           5.29684900     -0.68035600      6.10049400
H           4.91294500     -0.29084500      7.76714600
N           2.34142300      1.62494900      4.53459000
C           1.87888200      1.62018900      3.12581100
H           1.11947700      0.81200500      3.01667400
H           1.36068200      2.58849000      2.91155600
C           3.00712300      1.42113100      2.09287100
H           3.67660200      0.58479200      2.39477200
H           2.54147600      1.08507300      1.14084600
C           3.82944000      2.67558400      1.82907200
H           3.20015800      3.50262600      1.45725800
H           4.57194600      2.48874800      1.03063700
S           4.70456200      3.23087800      3.31491600
O           5.85804900      4.01662500      2.86864600
O           5.03893700      1.95193200      4.01893400
O           3.65784500      3.97627400      4.06465700
P           7.03855300      2.77685200      6.93259700
O           6.54909700      4.14118600      7.13554900
O           8.25746100      2.54802900      5.94776700
H           8.29234300      3.31804500      5.22604900
O           7.57820700      2.17813800      8.31260300
H           8.02508000      1.27510600      8.10878100
O           5.96338000      1.69126300      6.52850000
H           5.70257800      1.79184300      5.49757300
O           8.31580800      4.51969400      4.00017200
H           8.09300400      5.34944400      4.42315300
H           7.50247200      4.30268200      3.48403200
O           3.73872400      4.02952100      9.15462700
H           4.67574300      3.97330800      9.34910100
H           3.70879400      4.51123400      8.31310800
O           3.82209500      5.29866000      6.52948700
H           4.75742000      5.13561100      6.67875600
H           3.68018100      4.91839400      5.63859200
          44
 Energy =  -1902.78226890 a.u.  #Cluster:    6
C           2.29192000      2.79422100      6.12913800
C           2.94315100      2.52196100      7.33293500
C           3.71474600      1.36880300      7.47650200
C           3.78507900      0.45006800      6.40835400
C           3.09936000      0.73407800      5.22004200
H           4.28523200      1.19902300      8.39736500
H           1.75065000      3.75407400      5.98895400
H           2.87979200      3.26828400      8.13949600
H           3.18546900      0.07097800      4.34712600
C           4.62886400     -0.77158500      6.49340300
H           4.10472600     -1.68076700      6.17622100
H           5.52676500     -0.66478000      5.84603000
H           5.01906200     -0.94903900      7.50656800
N           2.36366100      1.89517200      5.08914900
C           1.66293600      2.21576700      3.80232300
H           0.71690700      1.62413700      3.77483400
H           1.36658500      3.29519800      3.82102700
C           2.48484700      1.93329800      2.53142400
H           3.01902400      0.95647100      2.62011600
H           1.76846600      1.79873200      1.69077300
C           3.48218900      3.02313000      2.15919900
H           2.97885800      4.00318500      2.03602000
H           3.90875100      2.81606000      1.15530700
S           4.76985400      3.13097900      3.37499300
O           6.02572200      3.60660000      2.76117900
O           4.94340300      1.69933500      3.85798100
O           4.24462800      4.00252900      4.43926100
P           7.09384700      2.20816100      6.59747400
O           5.82810000      2.63725500      7.24569800
O           8.06307500      3.34528100      6.01460700
H           8.24893900      3.37585300      4.92324600
O           8.05815000      1.38306900      7.64619400
H           9.01767100      1.32411100      7.40440400
O           6.95790800      1.16094600      5.36964100
H           6.08135300      1.23530000      4.72899400
O           8.32705000      3.62513500      3.47633100
H           7.72052600      4.39865300      3.35406400
H           7.80657100      2.89362900      3.05830200
O           2.12984900      5.29112000      7.27333600
H           1.87789400      6.17001000      7.50722300
H           3.14140000      5.32420000      7.12853300
O           4.71076200      5.21117800      6.83272900
H           5.08196800      4.39619200      7.24619700
H           4.71429400      5.00399600      5.86731000
          44
 Energy =  -1902.78213090 a.u.  #Cluster:    7
C           2.26966000      2.80109300      5.60624000
C           2.89930100      2.75978500      6.85860100
C           3.56303400      1.61495500      7.27371600
C           3.55596600      0.46412500      6.44489600
C           2.89081000      0.51904500      5.21954900
H           4.12048600      1.61323800      8.21935100
H           1.80703900      3.72710600      5.23281500
H           2.94248900      3.67999900      7.48220200
H           2.89648200     -0.33475600      4.53370000
C           4.29909700     -0.75812900      6.84073500
H           4.32089500     -0.91286900      7.92802600
H           3.92546000     -1.67793600      6.37877500
H           5.36834300     -0.65037200      6.52785100
N           2.25873500      1.68205200      4.80872500
C           1.62978800      1.74153300      3.45018100
H           0.83080400      0.96447500      3.40188900
H           1.12071200      2.72801400      3.32973900
C           2.62968100      1.52905200      2.29657400
H           3.31564800      0.67810700      2.52880100
H           2.05032000      1.20337500      1.40476500
C           3.45663200      2.75490300      1.92972900
H           2.81565800      3.63624500      1.73432900
H           3.97326600      2.58481900      0.96155000
S           4.63591000      3.10335200      3.21072600
O           5.73582500      3.94193300      2.68922800
O           5.07078900      1.77618500      3.71319400
O           3.85704500      3.86289500      4.24840200
P           7.00626300      2.24051800      6.48725500
O           5.80139300      2.96170200      7.03209100
O           7.98075400      3.04048700      5.58222400
H           7.66755500      4.17861800      5.07382700
O           7.88035300      1.58013200      7.71710700
H           8.77656200      1.23365000      7.46873200
O           6.60611400      0.86390200      5.68909400
H           6.15649400      1.00121800      4.76064500
O           7.23981700      5.16817600      4.48814800
H           6.34892800      5.37740700      5.03814300
H           6.88668200      4.76068200      3.61393100
O           4.33015500      4.77205200      8.39809500
H           5.05117700      4.11350500      8.39406800
H           4.62701500      5.47668000      7.80361700
O           5.09062200      5.26979600      5.88648200
H           5.11438800      4.31248000      6.23601100
H           4.35585500      5.23677000      5.21624500
          44
 Energy =  -1902.78017800 a.u.  #Cluster:    8
C           2.95506900      2.71579200      6.53283000
C           3.67794900      2.20817700      7.62271100
C           4.06207900      0.87243100      7.64286500
C           3.73581800      0.03941700      6.55152700
C           2.99204500      0.57223300      5.49036600
H           4.66489900      0.48195100      8.46855000
H           2.71630200      3.80939500      6.46470100
H           3.99307200      2.90250000      8.41511800
H           2.75623900     -0.03337100      4.60580000
C           4.23327600     -1.35916900      6.49177900
H           5.32419700     -1.34312700      6.27660000
H           4.10634100     -1.89642700      7.44178000
H           3.76739600     -1.96388000      5.70404600
N           2.61109900      1.89730100      5.49302800
C           1.81021200      2.45366100      4.35667000
H           0.75759700      2.10798200      4.47867900
H           1.77758500      3.58374900      4.45919900
C           2.33355700      2.07012700      2.96353200
H           2.76293800      1.04059800      2.96926800
H           1.45860800      2.01747600      2.27724400
C           3.34910500      3.04441900      2.38347200
H           2.95196200      4.08420100      2.41197700
H           3.47933600      2.85018500      1.29695300
S           4.90685000      2.96084200      3.21564200
O           6.00101200      3.25354300      2.27989200
O           4.96971600      1.62258000      3.87437800
O           4.88795700      4.06146000      4.25623600
P           7.03599300      2.49808800      6.63153500
O           6.02380000      3.41899500      7.21570400
O           7.99844800      3.04066500      5.49023400
H           7.72745700      3.99154000      4.90389700
O           8.05172100      1.88022000      7.76922300
H           8.84184600      1.39024000      7.41800300
O           6.42828500      1.10347500      6.03307700
H           5.97560500      1.15023100      5.08144800
O           7.31125300      4.91235500      3.94742400
H           6.34633900      5.05731000      4.19934500
H           7.25724000      4.35299800      3.11272700
O           2.58979700      5.29088200      5.02110000
H           3.51806600      5.12878300      4.70207300
H           2.71139400      5.85438200      5.80081000
O           4.33849000      5.17595800      6.74873100
H           4.88796600      5.17288000      7.54256100
H           4.84409300      4.58694800      6.12726500
