%nprocshared=24
%mem=50GB
#p M052X/6-31G* scrf=(smd,solvent=water)

Title Card Required

0 1
 C                  0.61579000    0.97567000   -0.00003800
 C                  1.14051000   -0.28605900   -0.00012900
 C                 -0.99630100   -0.52822000    0.00003800
 N                 -0.74930400    0.80410600    0.00000200
 H                 -1.44469400    1.53656600    0.00005900
 H                  1.07233000    1.95029900   -0.00008400
 H                  2.17957500   -0.57191900   -0.00022300
 H                 -1.99570400   -0.93133200    0.00010700
 N                  0.12480400   -1.22581500    0.00012900

