%nproc=24
%mem=50GB
#p M062X/6-311+G(2d,p) nosymm em=GD3 counterpoise=4

Title Card Required

0 1
P           8.12227300      7.38540800     12.46190200       1
O           6.96806700      6.57842600     12.03411000       1
O           7.76655200      8.87866000     12.85804500       1
H           7.49681800      9.42184000     11.97693800       1
O           8.74469900      6.79595800     13.80311900       1
H           9.54514000      7.40053000     14.05461700       1
O           9.34262900      7.44133300     11.46150000       1
H           8.97785100      7.80971800     10.52141200       1
O           2.23219300      6.06880000      9.23754000       2
H           1.56065200      5.47822400      8.90976500       2
H           2.99594900      5.93646700      8.64472100       2
O           4.49285400      5.74127200      7.60717000       3
H           5.33395100      5.90865800      8.09542400       3
H           4.69451700      5.01776300      7.02330100       3
O           6.79480300      6.12839600      8.99125900       4
H           6.85709400      5.91278800      9.92633600       4
H           7.38696000      6.91812500      8.90838600       4

