%nproc=24
%mem=50GB
#p M062X/6-311+G(2d,p) nosymm em=GD3 counterpoise=2

Title Card Required

0 1
C           3.77727700      7.15245000     11.99004300       1
H           3.33144700      6.33686200     11.39098100       1
H           3.20071100      7.26102200     12.91863600       1
H           4.80735700      6.82807100     12.27117200       1
C           4.67969600      8.22571300      9.97728000       1
H           4.32272200      7.31962300      9.44111600       1
H           5.71273000      7.97276900     10.33452700       1
C           4.39538300      9.51459100     12.08174100       1
H           5.37430400      9.19627900     12.50812600       1
H           4.64346900     10.42622700     11.50051600       1
H           3.72554900      9.77385800     12.90874200       1
C           2.41812200      8.80279700     10.81322300       1
H           1.74746100      8.84016900     11.68490200       1
H           2.38696700      9.78275900     10.31121200       1
H           2.00535100      8.04901300     10.10618100       1
C           4.69764900      9.43041200      9.02505200       1
H           4.59261500     10.38802600      9.57866600       1
H           3.82734500      9.37898900      8.33907900       1
C           5.98263400      9.45256200      8.20636800       1
H           5.91438700     10.20888000      7.40380100       1
H           6.12800300      8.48786500      7.68258900       1
N           3.81742300      8.43827700     11.21100100       1
S           7.46428100      9.81053800      9.20905200       1
O           6.92524800     10.10195700     10.57730800       1
O           8.16662800      8.47909500      9.22145800       1
O           8.16224700     10.89884300      8.55169600       1
P           8.12227300      7.38540800     12.46190200       2
O           6.96806700      6.57842600     12.03411000       2
O           7.76655200      8.87866000     12.85804500       2
H           7.49681800      9.42184000     11.97693800       2
O           8.74469900      6.79595800     13.80311900       2
H           9.54514000      7.40053000     14.05461700       2
O           9.34262900      7.44133300     11.46150000       2
H           8.97785100      7.80971800     10.52141200       2


