%nproc=24
%mem=50GB
#p M062X/6-311+G(2d,p) nosymm em=GD3 counterpoise=2

Title Card Required

0 1
P          10.09591700      7.00653800     11.29627700      1
O          10.61464300      6.20853700     12.40721700      1
O           9.18408800      8.17602500     11.86485200      1
H           9.00254900      8.90582700     11.14351300      1
O          11.10233500      7.63340700     10.25447300      1
H          11.70296200      8.39010800     10.73155000      1
O           9.16320200      6.10795800     10.35921500      1
H           9.12807800      6.52774600      9.42538500			1
O           8.82682500     10.26560500      9.97190500      2
H           9.56832100     10.85272700     10.26475800      2
H           9.10944200      9.98849800      9.10308300      2     


