          36
 Energy =     -0.47257100 a.u.  #Cluster:    1
C          12.09567800     10.15633900      8.22323500
H          12.21543100      9.65331900      7.25145100
H          12.98816200     10.76483100      8.42247000
H          12.07202500      9.34198100      8.99992300
C          10.94286700     12.14864500      7.34481500
H          11.18304600     11.82156100      6.31871800
H           9.99469400     12.71525100      7.29119000
H          11.73037500     12.84723400      7.67124500
C           9.66919500     10.10150200      7.85682600
H           8.67840300     10.56325000      8.08606000
H           9.70681600      9.83471200      6.79598900
H           9.64836000      9.13827600      8.44860000
C          10.63415900     11.46006300      9.72527500
H          11.56349900     11.96825100     10.05580600
H          10.55466000     10.54210100     10.38552900
C           9.41906300     12.37200100      9.93161300
H           8.77428200     12.40995100      9.02377400
H           9.75298500     13.41186600     10.11289500
C           8.55467600     11.89658800     11.10060800
H           7.78053800     12.65396500     11.34540300
H           9.14664700     11.77413900     12.03048800
N          10.81944900     10.96896500      8.28657600
C           7.85585200     10.59138500     10.76628800
O           7.40306800     10.39903900      9.60198100
O           7.75638100      9.70119400     11.65840300
P          10.49834200      7.51799500     10.98381700
O          11.30641200      6.29830500     11.07887600
O           9.69851800      7.89686500     12.36208500
H           9.06322700      8.69552900     12.34416300
O          11.52396800      8.88997000     10.86082400
H          12.30267800      8.86758100     11.45380800
O           9.54870300      7.85382800      9.79051100
H           8.23600800      7.73670000      9.93622100
O           7.05551800      7.93806800     10.04412200
H           7.04000200      8.34325900     11.01372800
H           6.97632400      8.83550800      9.48669400
          36
 Energy =     -0.47157300 a.u.  #Cluster:    2
C          12.06104700     10.52090200      9.29347900
H          12.54093400      9.74577800      8.67358200
H          12.78899900     11.31103000      9.51438400
H          11.82325100      9.99066200     10.26412800
C          11.14125400     11.74351200      7.35280800
H          11.58710800     11.03672500      6.63096400
H          10.23782200     12.16877900      6.87978800
H          11.86321000     12.56261800      7.50359700
C           9.88986400      9.88998000      8.35288900
H           8.93783500     10.19618700      7.86406000
H          10.38550000      9.12408500      7.73489100
H           9.58544100      9.34640300      9.27863300
C          10.16827400     12.07749600      9.61366000
H          10.69046900     13.04857700      9.48953000
H          10.40315400     11.75411800     10.67478100
C           8.65198400     12.26429000      9.47006400
H           8.24134800     11.71748700      8.58610200
H           8.42739900     13.33195400      9.27688500
C           7.88344700     11.80992000     10.71972700
H           6.79939300     11.74536400     10.49667900
H           7.98864900     12.54510700     11.54224400
N          10.79572700     11.05309200      8.65767500
C           8.40472800     10.45735500     11.18841300
O           7.88938700      9.40092000     10.73064300
O           9.41399800     10.47442200     11.94901800
P          10.65900800      7.17700200     11.07688700
O          11.48447500      6.02899700     11.45632400
O          11.10091500      8.67451900     11.49477900
H          10.33411900      9.30365300     11.98965700
O          10.68229800      7.43196700      9.40535200
H          10.88474500      6.63920100      8.86310400
O           9.07788200      7.09326000     11.39607600
H           8.47957400      7.94359200     11.18586400
O           6.95209700      9.90689700      8.24425300
H           6.31517300      9.32713200      7.84987300
H           7.04950200      9.60704200      9.18921900
          36
 Energy =     -0.46603100 a.u.  #Cluster:    3
C          11.94104500     10.61274100      7.94988500
H          12.12287400     10.10176200      6.98991400
H          12.55719000     11.52273600      7.98278300
H          12.28814000      9.92578000      8.75516400
C          10.04284800     11.86639500      7.04771000
H          10.32809000     11.49134500      6.05139400
H           8.93405200     11.97067200      7.04950700
H          10.47844100     12.86751000      7.18491600
C           9.69946700      9.64304000      8.02398300
H           9.11673900      9.57362800      7.09440200
H          10.34346400      8.74828300      8.11702900
H           8.95795300      9.55156000      8.85883800
C          10.30482900     11.57318100      9.50012100
H          11.10879200     12.32311100      9.64523300
H          10.47338900     10.77587000     10.27641900
C           8.93111100     12.22748400      9.69872500
H           8.18587400     11.84572000      8.96394600
H           8.98938600     13.31616900      9.51586000
C           8.38769400     11.96502600     11.10224500
H           7.35752600     12.35180700     11.20412800
H           8.98826300     12.47864400     11.87451800
N          10.47928400     10.92302200      8.13091600
C           8.36524300     10.45547900     11.39102100
O           7.87989400      9.71085600     10.50177100
O           8.87460800     10.07447300     12.44779700
P          10.58201800      7.29825800     11.10178900
O          11.31030600      6.04468000     10.97847200
O          10.14222100      7.66823600     12.56627200
H           9.59440800      8.58728600     12.55825400
O          11.43987300      8.59469500     10.60139200
H          12.26372100      8.67845100     11.17442400
O           9.34766700      7.41235300     10.11927300
H           8.73451200      8.23334500     10.39301500
O           6.84326900     10.43916900      8.08346000
H           5.93438700     10.16599500      8.04138200
H           7.14143900     10.17125500      8.99406400
          36
 Energy =     -0.46325900 a.u.  #Cluster:    4
C          11.74738200     10.01057700      8.01723800
H          11.90358600      9.71443400      6.97021900
H          12.67871500     10.43943100      8.41555100
H          11.55397500      9.07510500      8.59645900
C          10.84158800     12.15590100      7.27901800
H          11.00457200     11.85538600      6.23066400
H           9.97880600     12.84720500      7.29430700
H          11.72711800     12.71779900      7.61875200
C           9.34269500     10.26355500      7.70895300
H           8.43551000     10.88783900      7.88263600
H           9.39073600      9.97327500      6.65336200
H           9.15880600      9.34936800      8.32208200
C          10.48707000     11.38922900      9.61247800
H          11.49020200     11.69181500      9.97316200
H          10.21701700     10.46820300     10.20440800
C           9.44945500     12.48715400      9.88371400
H           8.75087000     12.61617600      9.03014000
H           9.94195200     13.46434000     10.03123700
C           8.61880000     12.11926200     11.11659400
H           7.83718200     12.87310000     11.31326600
H           9.23694100     12.06354500     12.02938600
N          10.59132900     10.96380600      8.15579900
C           7.93044500     10.76641000     10.87362800
O           7.49951300     10.55789600      9.71732000
O           7.89380800      9.94650700     11.80052000
P          10.72585400      7.62899900     11.29658400
O          11.64442300      6.53684200     11.56857800
O           9.64981300      7.86071000     12.42495200
H           9.03757900      8.68835500     12.19955900
O          11.45735100      9.07326700     11.12405500
H          12.13245300      9.18840400     11.86614600
O          10.03411300      7.59806000      9.87364300
H           8.96342300      7.68015500      9.95949500
O           7.38798300      7.92562900      9.90392300
H           7.12783200      7.93009000     10.83795800
H           7.30112200      8.90218200      9.68423100
          36
 Energy =     -0.46258400 a.u.  #Cluster:    5
C          11.81853500     10.52963900      9.22602000
H          12.24644500      9.62450900      8.75875600
H          12.59802500     11.29430100      9.32765300
H          11.51367800     10.20855400     10.25499900
C          11.08745100     11.53037000      7.11375400
H          11.53684100     10.70833100      6.52897500
H          10.23746100     11.92898600      6.53241500
H          11.84458300     12.32519200      7.20910800
C           9.69044900      9.89493600      8.22602600
H           8.81899300     10.17512200      7.60708900
H          10.20569600      9.04802700      7.74413300
H           9.28674000      9.49170800      9.18653300
C          10.02512700     12.21966400      9.23264900
H          10.38082200     13.15966600      8.76075200
H          10.46734900     12.22285800     10.26574100
C           8.49784600     12.25323400      9.35903800
H           7.98710500     11.59913100      8.61947100
H           8.13458800     13.27101600      9.10468100
C           8.01848800     11.89868900     10.76947200
H           6.91233100     11.85349700     10.79776400
H           8.32017000     12.66805000     11.50261300
N          10.62596700     11.04072200      8.46146900
C           8.58537200     10.54121800     11.20192500
O           7.93864600      9.51961300     10.88172500
O           9.68410400     10.54286700     11.77999600
P          10.66313600      7.11730100     11.19549000
O          11.33288400      5.84851900     11.45084200
O          11.19350400      8.32495800     12.05794300
H          10.52239100      9.15289700     11.99265300
O          10.92049700      7.70077400      9.69323100
H          11.07809600      6.92557500      9.06949000
O           9.09009200      7.03700800     11.28106500
H           8.66093300      7.99719600     11.16318400
O           6.79053300      9.69623900      8.44290500
H           6.05804500      9.09391700      8.39998900
H           7.12709300      9.61573500      9.37046500
          36
 Energy =     -0.46093400 a.u.  #Cluster:    6
C          11.83675900     10.10703300      8.15818400
H          12.00364400      9.79350700      7.11748600
H          12.76351200     10.54495700      8.55668400
H          11.63920800      9.17974800      8.74957900
C          10.97121500     12.27488000      7.43851300
H          11.19063000     12.00136800      6.39293600
H          10.10705600     12.96460800      7.42541000
H          11.83596200     12.82930600      7.83882500
C           9.44707500     10.37960800      7.74855800
H           8.53481500     11.00115500      7.90554200
H           9.53775900     10.12352100      6.68693600
H           9.23417300      9.44705900      8.32316600
C          10.50905100     11.44310900      9.73221000
H          11.49639600     11.72792700     10.14795300
H          10.20257700     10.50929900     10.27893500
C           9.46812300     12.54316700      9.98499400
H           8.80798100     12.69746700      9.10532900
H           9.95999600     13.51256700     10.17798200
C           8.58181600     12.15024800     11.17037000
H           7.78354700     12.89315600     11.33871900
H           9.15454000     12.08615000     12.11165500
N          10.67797100     11.06006100      8.26927200
C           7.92261600     10.79371600     10.86945600
O           7.51932000     10.61738900      9.69768400
O           7.89043900      9.94142200     11.76566300
P          10.66918500      7.50017800     11.28649100
O          11.41140600      6.26821200     11.49550400
O           9.58584500      7.78094800     12.39818800
H           9.02500700      8.64049700     12.17644900
O          11.59891700      8.83173900     11.26685800
H          12.31174200      8.73239000     11.97946200
O          10.03407400      7.69981700      9.84943600
H           8.95659900      7.73807500      9.90514100
O           7.39072200      7.97898500      9.81643300
H           7.11543800      7.96568200     10.74673400
H           7.31490800      8.96107200      9.61727800
          36
 Energy =     -0.45819600 a.u.  #Cluster:    7
C          12.15464100     10.60073900      9.12180700
H          12.35127200      9.76000100      8.43057400
H          13.00230100     11.29635000      9.09609900
H          12.12788900     10.14088900     10.13774900
C          11.08568700     12.28109000      7.70350900
H          11.50060800     11.78502400      6.80899600
H          10.14114000     12.77072400      7.40294400
H          11.78601200     13.07204100      8.01645100
C           9.84852200     10.27519000      8.34245500
H           8.90339300     10.74237800      8.00021500
H          10.24798700      9.62723000      7.54980900
H           9.53481000      9.60986000      9.18089400
C          10.37774500     11.99635200     10.06580500
H          11.18063400     12.68025600     10.40846200
H          10.26759300     11.21297200     10.87062800
C           9.05236900     12.75519500      9.90486000
H           8.61370600     12.62457700      8.89310500
H           9.21616900     13.84271200     10.02153900
C           8.02579700     12.26943600     10.92975500
H           7.07093300     12.81514000     10.82609400
H           8.36633800     12.42736900     11.96709000
N          10.85220900     11.28744000      8.80522400
C           7.76113600     10.77639100     10.67828300
O           7.29387900     10.45596000      9.57273600
O           8.09493300      9.97398500     11.57269200
P          10.75062100      7.36761300     10.89649100
O          10.85644100      6.28049800     11.85419000
O          10.59058600      8.83615000     11.49567100
H           9.57924100      9.10279100     11.59361200
O          12.09984900      7.66563100     10.05116900
H          12.72866300      6.87618300     10.21096000
O           9.74619200      7.24544200      9.68646900
H           8.72497700      7.37671800     10.01746300
O           7.22266700      7.80748600     10.28720500
H           7.23536200      8.13520500     11.20777100
H           7.12770800      8.66699400      9.80124700
          36
 Energy =     -0.45813300 a.u.  #Cluster:    8
C          12.02550000     10.52441900      8.85107600
H          12.11039800      9.66604600      8.15838600
H          12.88309800     11.19244300      8.70519000
H          12.11289700     10.08432400      9.87225700
C          10.84479600     12.23328300      7.56062700
H          11.14141900     11.72673700      6.62584300
H           9.88471600     12.74684000      7.36886100
H          11.59622100     13.00591300      7.78912400
C           9.63614100     10.26197200      8.34238600
H           8.66901600     10.75477600      8.11863000
H           9.92085700      9.60896000      7.50579100
H           9.40794000      9.59470400      9.20909700
C          10.40868000     11.96671000      9.98959000
H          11.26544100     12.62658800     10.23547000
H          10.36991200     11.18589600     10.80338400
C           9.09656000     12.76438600      9.98195700
H           8.54027000     12.64886700      9.02778500
H           9.30430100     13.84634900     10.07783700
C           8.18211200     12.30554100     11.11919800
H           7.23764800     12.87841800     11.12648800
H           8.64475600     12.45027300     12.11000500
N          10.71360400     11.24549000      8.68450500
C           7.84803700     10.82142500     10.89913700
O           7.24171600     10.52124700      9.85657200
O           8.26440600     10.00474200     11.74355900
P          10.75743600      7.36996400     10.79230700
O          10.85123700      6.22217300     11.67776100
O          10.73945700      8.81062900     11.47493000
H           9.75195500      9.12328500     11.65408200
O          12.05561900      7.62239800      9.85819700
H          12.65012900      6.79588300      9.95064100
O           9.65631600      7.40383000      9.66135500
H           8.66320800      7.47676000     10.09217500
O           7.20197200      7.87353900     10.52134200
H           7.31607000      8.17616900     11.44368200
H           7.06617700      8.74903400     10.07078500
          36
 Energy =     -0.45604000 a.u.  #Cluster:    9
C          12.10220000     10.54806300      8.80113700
H          12.58594600      9.94964400      8.01416500
H          12.73730500     11.41329700      9.03658800
H          12.06664000      9.89740300      9.71209300
C          10.79369700     11.84221500      7.18412100
H          11.19895700     11.28488000      6.32234900
H           9.79009400     12.21124500      6.90106300
H          11.43775800     12.71930600      7.35860700
C           9.90570700      9.74574600      8.07692600
H           9.06490500      9.95897400      7.39074800
H          10.52433000      8.94602300      7.64239500
H           9.43762000      9.31448700      8.99245000
C          10.12002900     11.75814800      9.56233500
H          10.69810100     12.69776300      9.68500700
H          10.31641900     11.16428700     10.49678200
C           8.62513700     12.06673400      9.41111000
H           8.14961100     11.44195600      8.62584700
H           8.48107500     13.11050200      9.07193300
C           7.86250800     11.85070700     10.72147500
H           6.77195100     11.90231200     10.54836300
H           8.10172300     12.63725800     11.46018300
N          10.71300200     10.96827800      8.40217300
C           8.20345600     10.47607700     11.31855200
O           7.78735900      9.45814100     10.72135800
O           8.93333200     10.46194000     12.32093200
P          10.74882800      7.45567400     11.39832700
O          11.57432200      6.39618100     11.95892900
O          11.10365900      8.92307200     11.87990500
H          10.21725200      9.43302500     12.18350200
O          10.99997100      7.68564000      9.80564900
H          11.23874500      6.79751600      9.38809400
O           9.19955100      7.19432200     11.50628600
H           8.64618000      8.05740900     11.22780800
O           7.04432500      9.36765000      8.14164200
H           6.34899200      8.72357500      8.09084900
H           7.25932900      9.42056500      9.11033300
