%chk=PA.chk
%nprocshared=16
%mem=50GB
#p 6-311+g(2d,p) nosymm em=gd3 m062x

Title Card Required

0 1
 P                 16.21329800    7.13626000   10.24033000
 O                 15.07704000    6.25855400   10.55885900
 O                 17.54243700    6.25867400   10.10544300
 H                 18.32619000    6.91316800    9.96197200
 O                 16.12089600    7.85037900    8.82733500
 H                 15.23834400    8.47342300    8.82049500
 O                 16.60925700    8.23103100   11.30581400
 H                 15.85421800    8.99701100   11.30873500

