%nproc=24
%mem=10GB
#p M062X/6-311+G(2d,p) nosymm em=GD3 counterpoise=2

Title Card Required

0 1
C           6.01430400     15.45363200     10.05610200        1
C           6.76948800     16.56373800     10.56765400        1
C           6.45259600     17.86869500     10.18178300        1
C           5.39161800     18.03880700      9.30828200        1
C           4.64625400     16.94479700      8.82139600        1
C           4.94309300     15.63985300      9.18085100        1
H           7.03446500     18.70792100     10.55892000        1
H           5.11636000     19.04234500      8.98431500        1
H           3.81404400     17.14042900      8.14444100        1
H           4.36480000     14.80115800      8.80821800        1
H           6.37669800     13.37158200     10.36462200        1
C           7.66333400     14.74185800     11.41061500        1
H           8.31103800     14.05352200     11.93959800        1
N           6.58527100     14.30911700     10.62398100        1
N           7.77784000     16.07467000     11.40873200        1
P          10.12369500     15.56417500      9.01040800        2
O           9.13369100     14.48775500      8.96129100        2
O          10.47049800     16.19938500     10.42551100        2
H           9.57446500     16.50131100     10.88682800        2
O          11.55795300     15.07823000      8.52410800        2
H          12.20013700     15.88507600      8.59026200        2
O           9.82628200     16.85404800      8.12199100        2
H           8.96927400     16.69656800      7.56107000        2




