%nproc=24
%mem=50GB
#p M062X/6-311+G(2d,p) nosymm em=GD3 counterpoise=4

Title Card Required

0 1
P          13.08898500      9.15168800     11.10202400       1
O          12.00480100      9.73610300     11.90200500       1
O          14.18371400     10.11746400     10.49699400       1
H          13.74663200     11.04156900     10.21663700       1
O          13.96959100      8.16574300     12.00014500       1
H          14.75220000      7.83394500     11.41669300       1
O          12.66276500      8.18960200      9.91910800       1
H          11.85131900      8.61747400      9.38862200			 1
O          13.07293800     12.52299500      9.70175000       2
H          12.60329200     12.27328600      8.88300900       2
H          12.36782400     12.70439100     10.34205700       2
O           7.36596100     12.83989700      9.36317800       3
H           7.50583300     13.75408000      9.57914400       3
H           8.26696500     12.43447400      9.36214400       3 
O          10.84060400     12.49929000     11.63299300       4
H          11.27029100     11.69497600     11.93589900       4
H          10.35307000     12.20357600     10.84024900       4


