          38
 Energy =     -0.49989600 a.u.  #Cluster:    1
C           9.19466100     12.09339100      7.87249600
C          10.16325200     12.08803400      6.87969600
C          11.04228900     11.00626400      6.76438800
C          10.92065000      9.93012900      7.63673800
C           9.92256400      9.96668400      8.63005000
H          11.83318200     11.02383700      6.01337200
H           8.52154600     12.95239800      8.01421700
H          10.26261900     12.96408000      6.23408300
H           9.80462800      9.13721600      9.35235900
C          11.86286300      8.78610000      7.61589700
H          11.46228000      7.87999900      8.10195900
H          12.18882000      8.50828500      6.60769400
H          12.77269100      9.03976900      8.20303800
N           9.09282400     11.03627600      8.73584800
C           8.15043700     11.10934100      9.87627100
H           7.11744000     11.20614900      9.47570300
H           8.19155000     10.14658600     10.45347000
C           8.47364600     12.28215800     10.82304600
H           8.75460600     13.19566100     10.24993400
H           7.53579600     12.56408900     11.34942400
C           9.53881700     11.94502800     11.85446200
H           9.37081200     10.94100200     12.29226600
H           9.47098900     12.63903100     12.71432900
S          11.23766600     12.04536100     11.23074900
O          12.07395000     11.64517400     12.37408900
O          11.36510700     13.42897400     10.72558900
O          11.31872000     11.04404200     10.10904500
P          11.29428800      8.18274400     11.92745300
O           9.85147400      8.42417500     11.86546400
O          11.60514200      6.63829700     12.16991900
H          12.62854200      6.54294300     12.25951400
O          12.06482300      8.49463700     10.57145400
H          11.90179900      9.52144500     10.33042800
O          12.11441500      8.88644100     13.08653700
H          12.17051000      9.92406400     12.89072900
O          10.13862100     14.41176200      8.52245600
H          10.39305900     15.32674100      8.51932300
H          10.65293900     14.03171400      9.28653000
          38
 Energy =     -0.49976300 a.u.  #Cluster:    2
C          10.20725800     11.77630400      8.15774800
C          11.34570800     11.47109300      7.39245400
C          11.72414900     10.15489500      7.20644800
C          10.93386400      9.12756100      7.75258400
C           9.80066100      9.46480600      8.48412100
H          12.63637200      9.90585400      6.66273500
H           9.91394200     12.83131300      8.33010300
H          11.94539500     12.29831200      7.00714700
H           9.17482300      8.69081700      8.95438500
C          11.33492600      7.70635400      7.60956200
H          12.22146600      7.50328000      8.24785900
H          10.56438600      6.99946600      7.95068900
H          11.60321500      7.44056700      6.57973200
N           9.45921800     10.77738700      8.68897100
C           8.27944700     11.04964600      9.54618500
H           7.38632200     11.09574800      8.88081600
H           8.13766000     10.17456100     10.23761000
C           8.35794700     12.32773000     10.39926300
H           8.66479300     13.20818600      9.79327300
H           7.31852000     12.57814600     10.71228600
C           9.22096800     12.17962900     11.64389600
H           9.13574400     11.16175800     12.07343100
H           8.85799300     12.85340600     12.44329800
S          10.97117900     12.56401800     11.37813400
O          11.65799300     12.05195000     12.57586000
O          10.99774300     14.02064900     11.13013200
O          11.35297600     11.79958800     10.13669400
P          11.39655200      8.68030500     11.53003600
O           9.94272700      8.74916500     11.35094900
O          11.87215700      7.15631500     11.58268400
H          12.87392400      7.15654900     11.82772800
O          12.24769400      9.25832700     10.32026200
H          11.98971800     10.28854800     10.18744100
O          12.00497700      9.28137400     12.86102800
H          11.92950400     10.34118600     12.82971700
O          10.07534400     14.90689900      8.74329000
H          10.44622900     14.65778800      9.63228200
H          10.49652500     15.73054100      8.53918100
          38
 Energy =     -0.49803200 a.u.  #Cluster:    3
C           9.97746500     11.74953700      8.16678300
C          11.11728200     11.49661000      7.38953400
C          11.54792200     10.19652000      7.19231400
C          10.80484800      9.13618000      7.73780400
C           9.67254700      9.42430400      8.49585900
H          12.46428600      9.98929600      6.63700900
H           9.63752000     12.78852200      8.34040300
H          11.67347400     12.35409500      6.99126700
H           9.08358000      8.62203400      8.96622000
C          11.24837700      7.73126100      7.56413500
H          11.47008500      7.48183500      6.51878900
H          12.17480700      7.55428500      8.15102200
H          10.52301000      6.99471500      7.94005400
N           9.28982500     10.72053300      8.72134100
C           8.11426100     10.94757000      9.59681700
H           7.20705900     10.93477500      8.94952300
H           8.02991600     10.07773100     10.30417800
C           8.14592100     12.24375200     10.42776000
H           8.46901800     13.11558100      9.81923100
H           7.09430700     12.48478800     10.70389800
C           8.97326000     12.12471200     11.70014500
H           8.97391000     11.08725500     12.08990300
H           8.52368100     12.72813400     12.51108100
S          10.68642700     12.67827800     11.50571500
O          11.40082600     12.10488500     12.65968200
O          10.62574400     14.13483800     11.36553800
O          11.14406600     12.06371300     10.19198000
P          11.49362400      8.85880000     11.38521200
O          10.03452900      8.80242000     11.23885600
O          12.10730400      7.38529500     11.30775900
H          13.10932300      7.45866100     11.54004600
O          12.25034000      9.59568800     10.19866600
H          11.90272500     10.60572000     10.14787300
O          12.07916000      9.41753800     12.74142800
H          11.86867100     10.46333200     12.79807300
O          11.27851100     14.34907700      8.54544100
H          11.09607500     14.98603400      9.24911900
H          11.50633400     13.55171200      9.05955500
          38
 Energy =     -0.49789900 a.u.  #Cluster:    4
C           8.73879400     12.05154700      8.10533400
C           9.48417200     11.94930800      6.94145700
C          10.30516000     10.83493700      6.73075900
C          10.34337800      9.82353800      7.68261400
C           9.56903200      9.95806700      8.85345700
H          10.92835400     10.77974200      5.83720400
H           8.11078900     12.92772900      8.31518500
H           9.46582600     12.77467200      6.22545700
H           9.57897500      9.17808000      9.63837900
C          11.24123700      8.65092500      7.55915900
H          10.90853200      7.78047600      8.15026300
H          11.38599200      8.31813100      6.52574300
H          12.24289800      8.90426300      7.97207500
N           8.80351400     11.06073700      9.04975300
C           8.13410800     11.25540900     10.35647500
H           7.04418100     11.38857200     10.18168200
H           8.25645400     10.32828600     10.97881300
C           8.71199100     12.46361800     11.12081900
H           8.93456600     13.30795300     10.42749700
H           7.91734500     12.85742800     11.79076300
C           9.93605100     12.11554000     11.95321900
H           9.79864700     11.15539100     12.48920700
H          10.07791400     12.86482500     12.75568300
S          11.48356700     12.05480600     11.01161900
O          12.50017000     11.65864200     11.99976600
O          11.59582500     13.39323900     10.39544300
O          11.28367500     10.98805100      9.96695800
P          11.45073500      8.24401300     11.95055100
O          10.04014200      8.58518500     12.14462500
O          11.70927900      6.69739800     12.23579400
H          12.72289600      6.53338300     12.13532300
O          11.96338200      8.42418400     10.45545500
H          11.81457800      9.44418500     10.18018000
O          12.51951200      8.95130000     12.88242000
H          12.59633700      9.97022400     12.60884300
O          10.08146400     14.30017100      8.33861700
H          10.40669200     15.18385000      8.21375700
H          10.68385500     13.93221000      9.03967000
          38
 Energy =     -0.49758900 a.u.  #Cluster:    5
C          10.18092100     11.73498900      8.17044300
C          11.30841200     11.37849800      7.41147600
C          11.63603700     10.04657100      7.24011400
C          10.80501800      9.05611600      7.79355300
C           9.68743800      9.44438500      8.52442200
H          12.53943200      9.75682500      6.70159400
H           9.92124400     12.79760200      8.32520700
H          11.94119200     12.17762800      7.01943700
H           9.03291900      8.70010800      9.00324100
C          11.14750000      7.61891200      7.65881800
H          12.03922400      7.38747400      8.27966400
H          10.35763500      6.94629400      8.02430500
H          11.38241800      7.33229600      6.62628400
N           9.39843100     10.77115000      8.71756500
C           8.23325100     11.09915800      9.57544100
H           7.33731700     11.15728000      8.91485000
H           8.07018300     10.24453300     10.28738000
C           8.35732600     12.39335800     10.39834900
H           8.69383500     13.24889600      9.77217200
H           7.32773000     12.68796600     10.70545300
C           9.21600200     12.24289300     11.64573600
H           9.11448500     11.23080700     12.08513100
H           8.86333900     12.93016900     12.43816600
S          10.97325600     12.59563000     11.37902000
O          11.65286900     12.05744800     12.57052100
O          11.02963100     14.05248200     11.15071600
O          11.33457700     11.83110100     10.13072000
P          11.33909200      8.70724500     11.52590300
O           9.88468800      8.79829300     11.35905200
O          11.79062400      7.17539000     11.57023100
H          12.79338900      7.15866000     11.81010600
O          12.18690000      9.27250100     10.30742200
H          11.94671900     10.30748200     10.17994000
O          11.96900200      9.29722300     12.85070300
H          11.90227500     10.35996000     12.82214900
O           9.99497900     15.13162800      8.87583200
H          10.40821500     14.79196500      9.70981400
H          10.34251400     16.00910300      8.78908900
          38
 Energy =     -0.49622800 a.u.  #Cluster:    6
C           8.83305700     11.92601100      7.83756900
C           9.63412400     11.81167500      6.70840900
C          10.57459200     10.78066900      6.61936400
C          10.67783900      9.85740700      7.65444200
C           9.82124000      9.98111800      8.76472700
H          11.23756500     10.72134900      5.75445300
H           8.14265400     12.76663200      7.96976100
H           9.56691700     12.57156100      5.92687500
H           9.85201100      9.25026600      9.59542000
C          11.70159800      8.78691600      7.66327900
H          12.62039100      9.14784100      8.17618300
H          11.39508700      7.89519800      8.23826400
H          11.99509800      8.45278800      6.66212800
N           8.93421900     11.00377300      8.84412400
C           8.11780700     11.15912400     10.07099200
H           7.04640300     11.20959600      9.77757400
H           8.23570400     10.24228700     10.71032700
C           8.51720900     12.40649200     10.88391200
H           8.87418500     13.22185300     10.21139100
H           7.60260900     12.81850900     11.36061300
C           9.55119300     12.10698100     11.96033100
H           9.38415000     11.11682400     12.42693900
H           9.46136900     12.82945000     12.79324200
S          11.25243200     12.20193100     11.34657200
O          12.08911700     11.70539200     12.45315500
O          11.42583400     13.59418600     10.91178200
O          11.28120200     11.27741700     10.14577100
P          11.41972500      8.33154200     11.98674000
O           9.97043800      8.54321300     11.99013700
O          11.77116300      6.78589600     12.15298900
H          12.79934800      6.70884900     12.19182400
O          12.11451400      8.69781200     10.59894700
H          11.91857500      9.71533800     10.37839900
O          12.28026300      9.01772000     13.11979400
H          12.28049300     10.07044600     12.94887000
O          10.64721200     13.58483900      8.32480800
H          10.92048700     14.28139500      8.94636300
H          11.05219000     12.79972600      8.73354900
          38
 Energy =     -0.49577000 a.u.  #Cluster:    7
C          10.32647300     11.70089300      8.28580500
C          11.58950500     11.46658300      7.73101000
C          12.00282600     10.17093000      7.46074300
C          11.12403900      9.10534300      7.70625700
C           9.89072800      9.37197300      8.30145900
H          13.00670000      9.97435700      7.08000500
H           9.97011000     12.73088000      8.46945300
H          12.25014800     12.32562500      7.55190700
H           9.20480900      8.55676000      8.57244600
C          11.52052700      7.70529100      7.41623800
H          12.22643600      7.34098700      8.19353400
H          10.67739400      7.00128700      7.43093200
H          12.02707800      7.60019500      6.44798900
N           9.51935600     10.65604000      8.60254100
C           8.21228700     10.84599800      9.27934200
H           7.42965700     10.89103700      8.48701700
H           8.00852800      9.93200500      9.89993000
C           8.10257900     12.08246900     10.19152600
H           8.55789600     12.97889500      9.71937000
H           7.02275300     12.34280000     10.26856000
C           8.65514400     11.84793500     11.59150900
H           8.72367700     10.76817500     11.82945400
H           7.96921500     12.26036000     12.35402600
S          10.28361000     12.59847600     11.86923300
O          10.85751300     11.83678200     12.99811200
O          10.05239300     14.02497700     12.05370600
O          11.03663200     12.32027700     10.57676000
P          11.60984100      8.99544000     11.20734400
O          10.20983000      8.81389500     10.79817400
O          12.41595000      7.63552100     10.95996700
H          13.35493800      7.75771500     11.36644700
O          12.42860900     10.02745400     10.32145000
H          11.96836500     10.99201000     10.40803400
O          11.89751300      9.32374300     12.72156600
H          11.51654700     10.31072300     12.92772000
O          11.77112900     14.32355900      8.86375900
H          11.61277400     13.61611100      9.53118100
H          11.75651500     15.12651700      9.37550800
          38
 Energy =     -0.49540400 a.u.  #Cluster:    8
C           9.82191700     11.89621500      7.74651100
C          10.88803500     11.72418500      6.86227900
C          11.57222300     10.50650400      6.81040500
C          11.17013200      9.45084700      7.64220100
C          10.07368000      9.65151000      8.50369000
H          12.42987500     10.38720600      6.14480500
H           9.31568900     12.87843600      7.84590500
H          11.19764900     12.56738000      6.23803000
H           9.74153800      8.84965700      9.21371400
C          11.89610000      8.15774400      7.69486400
H          11.22501100      7.28834900      7.74703800
H          12.57806600      8.00119100      6.85091400
H          12.51481900      8.11543900      8.62355300
N           9.43384300     10.85924400      8.56091900
C           8.33096300     11.03480400      9.55846200
H           7.36328000     11.05655500      9.00917100
H           8.31250300     10.12217200     10.22896900
C           8.48615700     12.29055500     10.42949100
H           8.85771100     13.16269500      9.83212000
H           7.46851100     12.59802900     10.75883300
C           9.35369600     12.06780800     11.65768600
H           9.15342700     11.05962900     12.09062800
H           9.03643300     12.75414000     12.47102100
S          11.08672300     12.27881800     11.34845000
O          11.75483000     11.81300000     12.59864900
O          11.29915500     13.68340100     10.95689300
O          11.45080300     11.33450200     10.22430500
P          11.12138400      8.53120800     11.71522500
O           9.75236400      8.69765700     11.15483200
O          11.49820900      6.97538900     12.06733400
H          12.24225400      6.84993600     12.71954800
O          12.29879200      8.96725600     10.68525900
H          12.25574200     10.00097500     10.34804000
O          11.44850700      9.26884900     13.11087100
H          11.74077000     10.31141800     13.09477100
O          10.05813700     14.51009600      8.80752600
H          10.82156800     14.25668900      9.41177300
H           9.85952400     15.41052900      9.03532900
