          33
 Energy =    -1125.05887650 a.u.  Frame:     1 Step:     1 Geom:     1
C           4.87527200     12.94141900     11.83396500
H           4.98919200     12.06183600     11.17876300
H           5.69598600     13.64447800     11.64874000
H           5.01738500     12.51972000     12.87822500
C           3.36984000     14.15282700     10.30001700
H           3.42932100     13.35817900      9.53513300
H           2.39919700     14.66220200     10.17383300
H           4.16615700     14.88237100     10.07571900
C           2.45932500     12.52005800     11.88381600
H           2.51582300     12.04424600     12.89704400
H           1.43648300     12.91424600     11.78447300
H           2.60209700     11.67143500     11.19211600
C           3.40939700     14.72640300     12.71633800
H           3.89613400     15.62867900     12.29330200
H           4.04335900     14.45047700     13.62153700
C           1.98842300     15.05617200     13.19348300
H           1.21793900     14.57560100     12.55484700
H           1.81614200     16.14722300     13.08467200
C           1.74098100     14.66468200     14.65801500
H           0.65414400     14.63090200     14.87089300
H           2.16916900     15.42149700     15.34599600
N           3.51348200     13.58266400     11.69845100
C           2.36398500     13.30827900     14.97353900
O           1.67530900     12.27169300     14.91138500
O           3.62245600     13.32506300     15.18999400
P           4.20868800      9.88372900     14.26193600
O           5.04571400      8.68250000     14.30305900
O           4.87058400     11.34520800     14.35562700
H           4.35938800     12.10513300     15.03162800
O           3.49871500     10.08314100     12.73189800
H           3.33705800      9.25174800     12.23870200
O           2.92160900      9.92021900     15.23928400
H           2.31124900     10.78599000     15.22359000
          33
 Energy =    -1125.07285120 a.u.  Frame:     2 Step:     2 Geom:     2
C           4.72081200     12.82914700     11.90854200
H           4.74817700     11.88763500     11.33305400
H           5.61513800     13.42440100     11.69093900
H           4.77057200     12.51749700     12.98791100
C           3.46459500     14.10407800     10.23554900
H           3.47949900     13.26187700      9.52153900
H           2.56723900     14.71051300     10.02660000
H           4.35240900     14.72575600     10.03317700
C           2.29127100     12.67072700     11.79941600
H           1.33639400     13.14659800     11.54059900
H           2.42525400     11.76959000     11.17567100
H           2.20051500     12.28704500     12.84756000
C           3.43366300     14.80648100     12.60165100
H           3.85398400     15.68071600     12.06652500
H           4.15573200     14.58897100     13.45011100
C           2.07821600     15.16364800     13.22496600
H           1.22740100     14.70039700     12.69270600
H           1.90893700     16.25602100     13.12587700
C           2.01834600     14.78642600     14.71031200
H           0.99209000     14.90078000     15.10424900
H           2.66583900     15.44171900     15.31865900
N           3.45506800     13.60536900     11.65635700
C           2.47483700     13.32988400     14.89165200
O           1.60965200     12.45297800     14.99014400
O           3.71229200     13.13859500     14.82282600
P           3.74516000      9.60843400     14.22709900
O           4.23925300      8.23673600     14.25490400
O           4.75252300     10.68403500     14.77930100
H           4.26768500     11.64101500     14.87204000
O           3.50518400     10.17823000     12.71407900
H           3.28518200      9.40354000     12.11043800
O           2.33064500      9.78780100     14.90046200
H           2.06643600     10.81337600     14.95510600
          33
 Energy =    -1125.07321400 a.u.  Frame:     3 Step:     3 Geom:     3
C           4.80241900     13.00327100     11.92200500
H           4.87562400     12.10694600     11.28178900
H           5.65047600     13.67038200     11.72626700
H           4.90197600     12.62088200     12.97203000
C           3.42138600     14.29616200     10.36335700
H           3.45960700     13.50375100      9.59551600
H           2.48566100     14.86293900     10.22015900
H           4.26572200     14.98038400     10.17772100
C           2.38498100     12.69459000     11.86249200
H           1.39680100     13.11628100     11.63562400
H           2.56840000     11.82980000     11.20185700
H           2.32864200     12.26776900     12.89638500
C           3.41025200     14.84118200     12.76986200
H           3.85050600     15.75070300     12.31600300
H           4.09565200     14.57030200     13.63540600
C           2.02072100     15.14506500     13.34410700
H           1.20767700     14.67990600     12.75698900
H           1.82771900     16.23569500     13.27574000
C           1.90054300     14.71318400     14.81151800
H           0.84937500     14.75597500     15.14927100
H           2.47459200     15.38367900     15.47507600
N           3.48311700     13.70897200     11.74798100
C           2.43141900     13.27988800     14.97662700
O           1.61927900     12.34754200     14.97223400
O           3.67959500     13.16720500     14.99969800
P           4.00378800      9.69095100     14.20415400
O           4.59201800      8.35664200     14.21240500
O           4.91379900     10.81871700     14.81721900
H           4.34913800     11.72527100     14.96074800
O           3.77922300     10.28501200     12.69755100
H           3.66357800      9.51361000     12.06180900
O           2.55658400      9.75216000     14.82695900
H           2.21972800     10.75520300     14.90345700
          33
 Energy =    -1125.07293230 a.u.  Frame:     4 Step:     4 Geom:     4
C           4.67584900     12.94405900     12.00355200
H           4.77284500     11.98965600     11.45668800
H           5.55108200     13.57353800     11.80590100
H           4.69766900     12.66348200     13.09397100
C           3.43678100     14.08381800     10.23270000
H           3.54307900     13.21057300      9.56440400
H           2.51344500     14.61552900      9.94861400
H           4.29305000     14.75161000     10.04195200
C           2.25987200     12.67412300     11.81182100
H           1.29266800     13.10994000     11.53085700
H           2.43917700     11.77155500     11.20114100
H           2.16900500     12.29343300     12.86419100
C           3.27335100     14.89867800     12.55766300
H           3.46178200     15.79183600     11.92682300
H           4.11630000     14.87106000     13.30378900
C           1.96356700     15.08963000     13.33646400
H           1.12221100     14.50370400     12.92052100
H           1.64085400     16.14757500     13.24228700
C           2.12735000     14.75004400     14.82071400
H           1.16727400     14.86070000     15.35780400
H           2.84761000     15.42097700     15.31845700
N           3.38812300     13.65110500     11.67590500
C           2.60696400     13.29543700     14.94293300
O           1.74034800     12.40905100     14.94939900
O           3.84299100     13.11720700     14.91903200
P           3.85071600      9.59087300     14.17171900
O           4.33918000      8.21658200     14.15660000
O           4.88122600     10.64452800     14.72819400
H           4.40488000     11.59231900     14.87943800
O           3.58205500     10.19650600     12.67749700
H           3.42386800      9.42997300     12.04474400
O           2.45440400      9.77001700     14.87791400
H           2.19042600     10.80090200     14.92632600
          33
 Energy =    -1125.07743130 a.u.  Frame:     5 Step:     5 Geom:     5
C           5.08593000     13.99136400     11.08377400
H           5.19963900     13.23100500     10.29159100
H           5.35892300     14.97251200     10.66703500
H           5.81446700     13.74032300     11.88311200
C           2.73195400     14.37000800     10.54314300
H           2.85217200     13.71386200      9.66389700
H           1.68302200     14.27134500     10.88314800
H           2.88333300     15.41274600     10.22060800
C           3.37688000     12.60444600     12.12374200
H           2.45344700     12.56861900     12.74138300
H           3.27327500     11.88434100     11.30053200
H           4.18785300     12.23781600     12.79780100
C           3.63068400     15.00231700     12.77327200
H           4.04236100     15.96554000     12.41503100
H           4.32625400     14.62424300     13.58810700
C           2.23047200     15.20560300     13.37162900
H           1.47460100     14.53719300     12.91066200
H           1.87719400     16.23522900     13.17328600
C           2.23912300     14.94229000     14.87965800
H           1.24710800     15.13856900     15.32388900
H           2.95885800     15.58366100     15.41182000
N           3.68487200     13.99128400     11.63806200
C           2.61057800     13.45960400     15.08752800
O           1.68477600     12.65850900     15.24795900
O           3.82729700     13.19016100     14.97362100
P           3.43047900      9.60772700     14.53664300
O           3.81648500      8.20283200     14.59975400
O           4.62054400     10.61724800     14.77678100
H           4.24604500     11.60662900     14.93615000
O           2.95207200     10.09675500     13.05589600
H           2.41513400      9.36176800     12.62551700
O           2.20980200      9.98507600     15.45876900
H           2.00436500     11.02940200     15.37621700
          33
 Energy =    -1125.07262970 a.u.  Frame:     6 Step:     6 Geom:     6
C           4.82298800     13.02010300     11.84515200
H           4.91185700     12.11688500     11.21722400
H           5.64262400     13.71326100     11.62137800
H           4.95966300     12.65598300     12.89781000
C           3.36083400     14.23652700     10.29874400
H           3.40836500     13.43241300      9.54384400
H           2.40313000     14.76877900     10.16873000
H           4.17620800     14.94607100     10.08082600
C           2.41892600     12.62667600     11.85255400
H           1.41164200     13.00602800     11.63371700
H           2.62084500     11.75367000     11.20779300
H           2.40598700     12.22860100     12.89534500
C           3.38325500     14.82346600     12.69574800
H           3.78476900     15.73928200     12.22015100
H           4.09210400     14.58751600     13.55502400
C           1.99452000     15.08859600     13.29061600
H           1.18904100     14.57558100     12.73420800
H           1.75687400     16.16842300     13.19261000
C           1.91575100     14.70157200     14.77314100
H           0.86927500     14.72580600     15.12828100
H           2.47868100     15.41470400     15.40160400
N           3.47640700     13.67779300     11.69141300
C           2.49632600     13.29553100     14.99996500
O           1.72249900     12.35423100     15.19124400
O           3.74564200     13.21305700     14.89583400
P           4.15343000      9.73985100     14.26141000
O           4.77986000      8.42302000     14.28374600
O           5.04374600     10.91203500     14.81317500
H           4.45513100     11.81326900     14.92477800
O           3.85945000     10.28177900     12.74727000
H           3.73810700      9.48861300     12.13988000
O           2.72517200      9.76932400     14.93166400
H           2.37689200     10.76157100     15.04514100
          33
 Energy =    -1125.08255280 a.u.  Frame:     7 Step:     7 Geom:     7
C           4.36393300     12.69305900     10.94130600
H           4.11575300     12.15539900     10.01365400
H           5.25453600     13.31271200     10.76701400
H           4.63474000     11.91404900     11.70121200
C           2.83474800     14.52376200     10.38404100
H           2.58450300     14.03772400      9.42620400
H           1.95472400     15.11396000     10.69922200
H           3.66242600     15.22935800     10.20256500
C           2.04207200     12.58953600     11.66098500
H           1.20941200     13.08931600     12.19609400
H           1.67142200     12.15899800     10.72319900
H           2.33511000     11.75160600     12.33894600
C           3.62551200     14.22462000     12.70933300
H           4.52506200     14.83552400     12.49397800
H           3.95067400     13.42869900     13.43820900
C           2.52227400     15.09145100     13.33452300
H           1.51348800     14.77821000     12.98957500
H           2.63909100     16.14877300     13.03829000
C           2.54875400     14.96294700     14.85905400
H           1.69674600     15.49151000     15.32001400
H           3.46059100     15.40629100     15.29424400
N           3.20139700     13.51314400     11.43134000
C           2.46276400     13.47610100     15.26211000
O           1.77975700     12.74494500     14.50636800
O           3.11749200     13.11508900     16.24365600
P           4.10856200     10.08196600     14.64854900
O           4.65321300      8.74646400     14.44359600
O           4.30432000     10.64484700     16.10751000
H           3.80840700     11.58459200     16.20414300
O           4.83080800     11.20954400     13.70479500
H           5.81206200     11.23431500     13.91988700
O           2.61350100     10.25449000     14.19356300
H           2.25214400     11.24702100     14.45284200
          33
 Energy =    -1125.07347450 a.u.  Frame:     8 Step:     8 Geom:     8
C           4.73524100     13.12598000     11.88807900
H           4.83820800     12.22136800     11.26243600
H           5.57330700     13.80596700     11.69259200
H           4.82905100     12.76082700     12.94390900
C           3.35009500     14.32947400     10.27045700
H           3.42606400     13.50618100      9.53800200
H           2.39966100     14.85818400     10.08582400
H           4.17790500     15.02923000     10.06941300
C           2.32379800     12.77264900     11.81729000
H           1.32881200     13.17533800     11.58788800
H           2.51720000     11.89967400     11.17029800
H           2.28003000     12.35607500     12.86067800
C           3.30174000     14.98000200     12.65128800
H           3.53772900     15.91119300     12.09557400
H           4.12326700     14.87415000     13.41369900
C           1.97246800     15.14812000     13.40143100
H           1.14707100     14.56073200     12.95568800
H           1.64126200     16.20400800     13.32163900
C           2.10485100     14.77688200     14.88178200
H           1.12754600     14.84711700     15.39356100
H           2.79111900     15.45651500     15.41475300
N           3.40487200     13.80080300     11.68039200
C           2.62062800     13.33235100     14.98746200
O           1.78655200     12.42190600     14.85433800
O           3.85429100     13.18946200     15.09532000
P           4.07139900      9.74131500     14.07318400
O           4.62552400      8.39291300     14.02547400
O           5.03857400     10.82664000     14.67825400
H           4.50105200     11.72592800     14.91372300
O           3.80891100     10.37843100     12.58997300
H           3.70917000      9.62485900     11.93073500
O           2.65190000      9.83068400     14.74937000
H           2.33070000     10.84506200     14.81551400
