%mem=50GB
%nprocshared=24
#p opt freq b3lyp/6-311+g(2d,p) scrf=(smd,solvent=water) em=gd3bj

Title Card Required

0 1
 C                 -1.40493600    0.66679400   -0.23193800
 C                 -2.75586600    0.83736400    0.00827700
 C                 -3.53923600   -0.31412600    0.12560700
 C                 -2.96235300   -1.56933500    0.00396300
 C                 -1.60775700   -1.67184300   -0.23650100
 H                 -4.60231300   -0.22118000    0.31258800
 H                 -0.72448400    1.50023200   -0.33380800
 H                 -3.55082400   -2.47163000    0.09218500
 H                 -1.09409600   -2.61622100   -0.34050700
 C                 -3.34687300    2.21009500    0.13267400
 H                 -3.82745800    2.32915800    1.10635400
 H                 -2.58669000    2.98327400    0.02282200
 H                 -4.11238400    2.36312200   -0.63157400
 N                 -0.85909400   -0.56093400   -0.35745000
 C                  0.60947800   -0.68033700   -0.54594900
 H                  0.78856100   -1.59171500   -1.11380500
 H                  0.92379700    0.17101500   -1.14597700
 C                  1.33339600   -0.71362100    0.79574100
 H                  1.07089400    0.17902200    1.36717700
 H                  0.98765500   -1.58284100    1.36136200
 C                  2.84586400   -0.78982800    0.60473300
 H                  3.32193500   -0.93524500    1.57991400
 H                  3.11534600   -1.65713700   -0.00228500
 C                  3.49985200    0.45697200   -0.00704200
 O                  4.61336100    0.28910000   -0.58653000
 O                  2.92092700    1.57138200    0.12782000

