          18
 Energy =     -456.24895310 a.u.  Frame:     1 Step:     1 Geom:     1
C           2.19846500      6.99720300     15.65614700
C           2.23916900      6.88609900     17.08865000
C           2.82740600      5.76805300     17.68980900
C           3.35607000      4.79684200     16.85929300
C           3.31141000      4.91465600     15.45261400
C           2.73680600      6.00740600     14.82881000
H           2.85733700      5.68539800     18.77419500
H           3.82187600      3.91270700     17.29142900
H           3.74460700      4.11660900     14.85089400
H           2.70059000      6.10053900     13.75073400
H           1.37431500      8.57601600     14.46108200
C           1.23601000      8.77941800     16.62398300
H           0.72894800      9.72859600     16.70851400
N           1.55745500      8.20568100     15.38367600
N           1.63015300      8.01504900     17.64537800
O           1.51738100      8.45674600     12.66497300
H           1.02769700      7.78660300     12.18855200
H           2.38430400      8.49638400     12.26128000
          18
 Energy =     -456.24878870 a.u.  Frame:     2 Step:     2 Geom:     2
C           1.88581300      6.79695400     15.80913000
C           3.09828800      6.74759600     16.58043500
C           3.22020400      5.84377800     17.64134700
C           2.14344900      5.01801900     17.90767800
C           0.95633000      5.07347000     17.14483100
C           0.80542800      5.95586900     16.09024100
H           4.13842700      5.80843600     18.22323100
H           2.20188900      4.30208800     18.72561400
H           0.14132500      4.39791600     17.40204800
H          -0.10587900      5.99792600     15.50531100
H           1.43390200      8.07819800     14.13757700
C           3.37927300      8.29507500     15.05350700
H           3.79049400      9.08051800     14.43744500
N           2.08766200      7.78612300     14.84665800
N           3.99491900      7.69447500     16.07482100
O           1.19989500      9.15432900     12.69803400
H           1.27776600      8.84690500     11.79591900
H           0.63081600      9.92233100     12.67619100
          18
 Energy =     -456.24913330 a.u.  Frame:     3 Step:     3 Geom:     3
C           2.06806700      6.72159300     15.65751300
C           2.90265100      6.87076000     16.81872000
C           3.15971600      5.77183800     17.64554900
C           2.58611300      4.56169500     17.30104100
C           1.76754100      4.42439000     16.15846700
C           1.49483800      5.49173700     15.32188300
H           3.79113100      5.88737200     18.52359100
H           2.76371700      3.68452200     17.92074700
H           1.34306100      3.44563600     15.93796000
H           0.86640400      5.38586300     14.44541700
H           1.51557500      8.22799100     14.22217100
C           2.79570400      8.83727500     15.85599600
H           2.92523500      9.88221700     15.61771700
N           2.01402500      7.98244500     15.06318900
N           3.33021000      8.19986400     16.90042100
O           1.18159800      9.38883800     12.87610700
H           1.69044300      9.38533900     12.06620700
H           0.32397100      9.75063100     12.65731600
          18
 Energy =     -456.25001860 a.u.  Frame:     4 Step:     4 Geom:     4
C           2.06337700      6.88450300     15.73037300
C           3.00015300      6.95503100     16.81851500
C           3.08852200      5.90498100     17.73878500
C           2.25076900      4.81989700     17.55641300
C           1.33363300      4.75925100     16.48428200
C           1.22268800      5.78115900     15.55843200
H           3.79804600      5.96021800     18.56142100
H           2.29133500      3.98404700     18.25277600
H           0.69967000      3.87810900     16.39206700
H           0.51915000      5.73474800     14.73595500
H           1.71156400      8.33156800     14.18172500
C           3.22583500      8.80471800     15.66327100
H           3.55234000      9.77221600     15.31297700
N           2.22400100      8.06898700     15.01056900
N           3.69835200      8.16386200     16.73497900
O           0.79899300      8.79936300     12.70237700
H          -0.13187900      9.01273000     12.76576000
H           0.91344900      8.32461800     11.87933800
