          25
 G =       -0.465630 Gcorr = 0.115012 a.u. Nimag =   0 Frame:     1 Step:     1 Geom:     1
C           3.75489700     10.98144500     10.30294500
C           3.05462400      9.86236200     10.76862100
C           3.76983900      8.69802700     11.04647600
C           5.14494600      8.67057400     10.81674100
C           5.76619200      9.83192500     10.34190700
N           5.08898200     10.97312400     10.10588400
H           3.26276800      7.82683200     11.45770400
H           3.25086100     11.93218700     10.09994900
H           1.98605200      9.91840100     10.95108900
H           5.73573900      7.78345200     11.02994000
H           6.84537100      9.87021000     10.16049200
P           4.75290100     11.18108700     13.82032000
O           3.52401300     11.96140200     13.77599400
O           5.53047300     11.05006500     15.20262500
H           5.44173700     11.96040400     15.70448600
O           4.55995900      9.66363100     13.39998500
H           5.49984500      9.24456600     13.23924200
O           5.96833100     11.69416500     12.89908200
H           5.61393100     11.98231000     11.97881700
O           7.38180100      8.95380100     12.71816400
H           7.84003800      8.84267200     13.55344100
H           7.40608100      9.90655400     12.55135300
O           5.03539200     13.62066700     16.46606100
H           4.07301700     13.57342900     16.46020100
H           5.25221000     14.25671700     15.77849200
          25
 G =       -0.465622 Gcorr = 0.115020 a.u. Nimag =   0 Frame:     2 Step:     2 Geom:     2
C           5.34828500     11.07270400     10.17196000
C           5.54217700      9.69275300     10.30732700
C           4.47585100      8.91147400     10.75112200
C           3.24841200      9.51842700     11.01464700
C           3.14229700     10.90567600     10.86032000
N           4.17645900     11.67312900     10.45992700
H           4.60530000      7.84227800     10.91008500
H           6.15647200     11.73447700      9.84343300
H           6.51546100      9.25526400     10.10056600
H           2.40465600      8.93856600     11.37539600
H           2.21325000     11.44023600     11.08455300
P           4.99599000     10.88384600     14.01707200
O           3.60392200     10.84941900     14.44389800
O           6.13825900     10.91859200     15.12454000
H           5.79143400     11.49732200     15.92028100
O           5.42324600      9.63680800     13.13457000
H           6.34008400      9.84834000     12.68785100
O           5.45398900     12.15782400     13.14736300
H           4.73084400     12.38834200     12.45485700
O           7.85219700     10.75564000     11.80164800
H           8.54956300     10.74464200     12.46017400
H           7.36689600     11.57484100     11.97400600
O           4.90916800     12.44984400     17.26787200
H           4.56418700     13.22811900     16.82112800
H           4.14160500     11.88144900     17.39542100
          25
 G =       -0.466466 Gcorr = 0.112604 a.u. Nimag =   0 Frame:     3 Step:     4 Geom:     4
C           2.95645400     10.75794500     10.54215400
C           2.16910900      9.87593700      9.79407900
C           2.46138100      8.51340500      9.84735400
C           3.52004200      8.07346700     10.63763000
C           4.26102200      9.02039000     11.35810400
N           3.98115900     10.33606400     11.30806600
H           1.86688500      7.80144900      9.27531600
H           2.77545900     11.83889900     10.54027600
H           1.34997700     10.24736400      9.18602900
H           3.77245900      7.01878400     10.69891400
H           5.10777600      8.72706200     11.99917900
P           6.65555100     11.28836100     13.75437300
O           6.41439800      9.86469200     13.98045100
O           6.82319800     12.21886600     15.04474800
H           6.22759600     11.83211900     15.79819500
O           7.99781800     11.58603600     12.96694000
H           8.06472200     12.61843900     12.82694300
O           5.53197700     12.09929600     12.97034000
H           5.00932300     11.44027700     12.33412000
O           7.86825900     14.52658600     12.72697300
H           6.95615700     14.49648100     12.41634400
H           7.79473600     14.68353500     13.67397900
O           5.17178900     10.81221000     17.02357900
H           4.36260500     10.67519000     16.52299300
H           5.66015100      9.98715600     16.92293800
          25
 G =       -0.465049 Gcorr = 0.112076 a.u. Nimag =   1 Frame:     4 Step:     6 Geom:     6
C           4.45958300      8.48164700     10.84704000
C           3.60243400      7.93533400      9.88569500
C           2.60371500      8.74551100      9.34631700
C           2.48850100     10.06442700      9.77763700
C           3.38676100     10.53727300     10.74409800
N           4.35384600      9.75829000     11.26390400
H           1.92007200      8.34850600      8.59621300
H           5.25976000      7.89269500     11.30949400
H           3.71400500      6.90257100      9.56991300
H           1.71851000     10.71873200      9.37869600
H           3.33776000     11.57041000     11.12345100
P           5.25352300     12.20903300     13.96295100
O           4.36832700     13.00266700     13.12826200
O           6.51770300     12.95703800     14.60848900
H           7.36340100     12.70914700     14.06545800
O           4.51454500     11.61043200     15.23082200
H           5.21907700     11.36366400     15.94589400
O           6.00100600     10.98402300     13.26081700
H           5.35410700     10.49015900     12.59927300
O           6.83528900     11.47403200     17.31193100
H           7.54262600     11.43244300     17.94621100
H           7.08215100     12.15142200     16.67566900
O           8.74331700     11.97582400     12.97999600
H           8.51031800     12.35864600     12.13037900
H           8.27966600     11.12608200     12.99140500
          25
 G =       -0.466461 Gcorr = 0.112609 a.u. Nimag =   0 Frame:     5 Step:     7 Geom:     7
C           4.23668100      8.31649100     11.14373500
C           3.48734500      7.89244900     10.04093000
C           2.69388700      8.82672200      9.37588200
C           2.67069100     10.14456200      9.82493600
C           3.45069300     10.49051100     10.93698200
N           4.21712700      9.59052800     11.58078100
H           2.09804200      8.52695400      8.51411400
H           4.87807200      7.62864400     11.70650200
H           3.52442000      6.85807800      9.71325900
H           2.06207000     10.89469800      9.32824500
H           3.47009800     11.51834000     11.33349400
P           5.57124100     12.07571500     14.04046000
O           5.08064900     12.87296800     12.91799200
O           6.98116100     12.48848900     14.67344700
H           7.57320100     12.87079200     13.91498300
O           4.62427400     12.11881500     15.30995200
H           5.03773100     11.49627500     16.03909100
O           5.82764500     10.52722300     13.77338400
H           5.19829000     10.20203900     12.99202700
O           6.04597400     10.28231700     17.13339300
H           6.13816600      9.61301100     16.44572500
H           6.87692800     10.76798500     17.10919800
O           8.36118400     13.66457000     12.36343600
H           7.66443700     14.31320500     12.21131500
H           8.20999200     12.98862800     11.69675200
          25
 G =       -0.466565 Gcorr = 0.111898 a.u. Nimag =   0 Frame:     6 Step:     8 Geom:     8
C           4.70322200      8.13008400     10.98224600
C           3.74702800      7.51397600     10.16729700
C           2.44472700      8.01236200     10.17483900
C           2.13562300      9.10063100     10.98685500
C           3.14986800      9.66130200     11.77515400
N           4.40725900      9.18055800     11.77175500
H           1.67800400      7.55476200      9.55021200
H           5.74328800      7.78583200     11.01563800
H           4.01682800      6.66770600      9.54308600
H           1.13114900      9.51316100     11.01114000
H           2.96105100     10.52451700     12.43158900
P           5.89505500     12.18436400     13.35745200
O           6.06489900     12.95038400     12.12900700
O           6.73235300     12.66994200     14.63503900
H           7.56811700     13.17857900     14.29756700
O           4.39935200     12.21038400     13.90037200
H           4.39112400     11.83239200     14.86749000
O           6.31481400     10.65374100     13.34030900
H           5.67314700     10.13985200     12.67331900
O           4.70687900     11.09187200     16.60333100
H           5.38756300     11.73450800     16.83324400
H           5.19903500     10.30991800     16.33206300
O           8.91950000     14.15552100     13.38770600
H           9.20241300     13.51757100     12.72557700
H           8.33770400     14.75609000     12.90772600
          25
 G =       -0.466451 Gcorr = 0.112619 a.u. Nimag =   0 Frame:     7 Step:     9 Geom:     9
C           3.15549700      9.61267300     11.97063100
C           1.99605200      9.03587800     11.43418200
C           1.74304300      9.18544100     10.07312600
C           2.64479000      9.90030000      9.28535700
C           3.77963700     10.44507400      9.89593700
N           4.02759100     10.30279800     11.21233200
H           0.85024100      8.74830500      9.62662900
H           3.40369400      9.52568800     13.04060700
H           1.31285800      8.48406400     12.07337500
H           2.47333400     10.03234600      8.22148200
H           4.52379500     11.01616700      9.32910000
P           6.27583400     11.17017800     14.08267300
O           4.99091900     10.82619400     14.68832700
O           7.04100600     12.45054000     14.66065100
H           6.32968900     13.13649100     14.96978100
O           7.37442100     10.03982000     14.24304000
H           8.23923800     10.36223500     13.75509800
O           6.27491900     11.52349400     12.53029200
H           5.47001100     11.02784600     12.06261400
O           9.63406400     11.23964100     12.76749600
H           9.07230400     11.46148000     12.01613200
H           9.65855900     12.04446900     13.29531800
O           4.81059300     14.12496400     15.57779600
H           4.45866600     13.43618300     16.15317600
H           4.23924200     14.10774300     14.80486400
          25
 G =       -0.465633 Gcorr = 0.115009 a.u. Nimag =   0 Frame:     8 Step:    10 Geom:    10
C           2.60053900     10.82433300     11.59350100
C           2.87360000      9.45144200     11.60624800
C           3.98761500      8.98797800     10.90724200
C           4.76817600      9.89349200     10.18949600
C           4.41989400     11.24913200     10.22325500
N           3.36679200     11.71110600     10.92622800
H           4.25627200      7.93345000     10.93881900
H           1.75917500     11.24891900     12.15118000
H           2.25582000      8.77268600     12.18584500
H           5.64848000      9.56942900      9.64041000
H           5.00804400     12.00432300      9.69146900
P           5.40838700     10.88427900     13.94232800
O           4.25170100     10.68677900     14.80507000
O           6.85037000     10.99962200     14.60553600
H           6.74368100     11.50622100     15.51127600
O           5.61909400      9.72291600     12.88256800
H           6.30853000     10.04680300     12.17200300
O           5.43156900     12.23067700     13.06145400
H           4.49942100     12.40829100     12.66748700
O           7.34545300     11.14010000     10.89892100
H           8.22278800     11.17878700     11.28476400
H           6.87807500     11.89712600     11.27937400
O           6.28850900     12.30718300     17.14049200
H           5.66274000     11.65497900     17.47450700
H           5.74528100     13.05995900     16.89053300
          25
 G =       -0.466447 Gcorr = 0.112623 a.u. Nimag =   0 Frame:     9 Step:    11 Geom:    11
C           2.27977200     11.03851500     11.18509000
C           1.26049500     10.20444500     10.71296600
C           1.45964200      8.82462800     10.74706100
C           2.65784400      8.32072000     11.24632800
C           3.62976100      9.22250400     11.70121300
N           3.44007900     10.55473900     11.66906600
H           0.68486800      8.14883200     10.38574300
H           2.18143400     12.13010200     11.18349400
H           0.33655500     10.62536900     10.32850100
H           2.84250700      7.25103500     11.28507700
H           4.59469000      8.87804200     12.10651800
P           6.73440700     11.35014900     13.26907500
O           6.46407200      9.95582700     13.61386000
O           7.30793700     12.29480300     14.42560100
H           6.90935500     11.97641800     15.32660800
O           7.83263900     11.52192900     12.14001700
H           7.93162700     12.54228900     11.94226300
O           5.50069300     12.22847100     12.77800100
H           4.78132000     11.59794600     12.33381900
O           7.85161100     14.45730000     11.81695200
H           6.88977600     14.49350000     11.76282700
H           8.04749700     14.64039000     12.74164600
O           6.14980000     11.07656800     16.83270200
H           5.22850800     10.99317500     16.57117300
H           6.53311300     10.21231500     16.64442100
          25
 G =       -0.466481 Gcorr = 0.112589 a.u. Nimag =   0 Frame:    10 Step:    12 Geom:    12
C           3.88192800      9.27602100     11.36655500
C           3.05646200      8.33036400     10.74275700
C           1.68145300      8.54936300     10.72784000
C           1.16608100      9.69678200     11.32997200
C           2.05625200     10.59304200     11.93145700
N           3.38698000     10.38446700     11.94811300
H           1.01378700      7.83263100     10.25029600
H           4.97596400      9.15194500     11.40793200
H           3.48769600      7.44646600     10.28168800
H           0.09840900      9.89357100     11.33302000
H           1.71092800     11.51139400     12.41992800
P           6.72813600     11.59929100     13.13394200
O           6.90350000     10.17022700     12.88277600
O           7.38252400     12.19681000     14.46566600
H           7.35430600     11.46177900     15.19434700
O           7.37136800     12.52212300     12.01811500
H           7.16624600     13.51518700     12.26653400
O           5.23567500     12.13001200     13.29443400
H           4.58410300     11.50074300     12.75440000
O           6.60788100     15.20184800     12.99655000
H           7.02027100     15.09475900     13.85989400
H           5.69273700     14.93051200     13.13153600
O           7.30610500      9.88132800     16.26876600
H           7.80652100      9.32454300     15.66141200
H           6.39469200      9.59481100     16.16208700
          25
 G =       -0.465606 Gcorr = 0.115036 a.u. Nimag =   0 Frame:    11 Step:    13 Geom:    13
C           4.09051400      8.53185900     12.97158600
C           2.86219300      9.20357600     12.96083100
C           2.49448100      9.89945200     11.80969500
C           3.33992300      9.87967800     10.70099800
C           4.55376600      9.18923200     10.79870300
N           4.93090900      8.53805600     11.91781600
H           1.56719600     10.46923800     11.78334800
H           4.43546400      7.98435100     13.85489800
H           2.23231700      9.20403200     13.84666300
H           3.08759400     10.42394100      9.79634600
H           5.27151200      9.16746800      9.97194300
P           5.48161900     12.13243100     12.76898000
O           5.83513900     12.51258400     11.40822600
O           5.76792900     13.15737100     13.95216700
H           6.65982300     13.65288700     13.73421700
O           3.93845900     11.81991100     12.96259200
H           3.81148900     11.34435100     13.88049600
O           6.22467500     10.84009800     13.37489000
H           6.27520500     10.09906100     12.66522400
O           4.05016800     10.20038300     15.47036700
H           4.93613000     10.02690300     15.12232400
H           4.18948700     10.82224900     16.18737600
O           8.19122500     14.49837400     13.07073100
H           8.77480700     13.77433600     12.82665700
H           7.84797600     14.82819600     12.23294200
          25
 G =       -0.466339 Gcorr = 0.113059 a.u. Nimag =   0 Frame:    12 Step:    15 Geom:    15
C           4.35502100      9.87806900     10.00872400
C           3.16241200     10.54140100     10.32026500
C           2.44803600     10.13382300     11.44570900
C           2.92399400      9.06798000     12.20812900
C           4.12646400      8.45827500     11.82528000
N           4.83571700      8.86013000     10.75082900
H           1.53805800     10.65492800     11.73757600
H           4.96967200     10.17191600      9.15215100
H           2.82530300     11.37848100      9.71837100
H           2.39997300      8.73956700     13.09920100
H           4.56248900      7.63629600     12.40155300
P           5.72325000     11.39879200     13.07491900
O           5.22736600     12.46396900     12.21400200
O           6.40573100     11.82961800     14.45619500
H           6.90720700     12.72655400     14.31180100
O           4.60274000     10.37329700     13.54357800
H           4.89130000      9.94530100     14.44871100
O           6.89113500     10.49196000     12.47143100
H           6.48727500      9.89149200     11.72848400
O           5.60041900      9.34630400     16.06223800
H           5.63830600     10.20832400     16.49255500
H           6.51051400      9.17282600     15.79809300
O           7.64483200     14.36437700     13.81902600
H           8.18379700     14.13621300     13.05573600
H           6.85898900     14.78012300     13.44545700
          25
 G =       -0.466558 Gcorr = 0.111905 a.u. Nimag =   0 Frame:    13 Step:    18 Geom:    18
C           2.49624900      9.17608900     11.95266600
C           1.76884000      8.70593400     10.85364800
C           2.04909700      9.23437900      9.59401900
C           3.03734800     10.20724300      9.46700900
C           3.72062600     10.62616200     10.61684000
N           3.45032100     10.11958400     11.83438900
H           1.50052200      8.88772500      8.71862600
H           2.32379700      8.79593700     12.96613400
H           1.00477100      7.94546700     10.98210500
H           3.28043500     10.63477700      8.49858100
H           4.51308700     11.38888000     10.57247600
P           6.57897600     11.35939200     13.39404900
O           7.42235100     10.24022400     12.99303600
O           7.12974800     12.29450300     14.57366700
H           7.78230200     11.73491900     15.14994500
O           6.33574700     12.40303500     12.21746700
H           5.91785000     13.26440500     12.61959000
O           5.13942300     11.03065800     13.97605800
H           4.56011800     10.59399700     13.20510900
O           5.15856200     14.68507200     13.65161200
H           5.89166000     14.71918800     14.27661700
H           4.47950300     14.17738800     14.10804400
O           9.00640000     10.50726400     15.92677000
H           9.52786200     10.33204200     15.13497000
H           8.45440800      9.72574600     16.02659100
          25
 G =       -0.465634 Gcorr = 0.115009 a.u. Nimag =   0 Frame:    14 Step:    19 Geom:    19
C           2.53106800     10.56041900     12.71678300
C           2.65829300     11.38267900     11.59077900
C           3.30413800     10.87353300     10.46468900
C           3.77242700      9.56019500     10.48204400
C           3.61073800      8.80870600     11.65194200
N           3.01378300      9.30260400     12.75580600
H           3.45976900     11.50066600      9.58851000
H           2.04759800     10.91556400     13.63284900
H           2.28808700     12.40430800     11.61615000
H           4.29185500      9.14108900      9.62597600
H           3.98813700      7.78404000     11.73440800
P           6.38088800     10.91959700     12.77851400
O           7.05311800      9.78145200     12.16711200
O           7.26211300     12.07215600     13.43228500
H           8.09308300     11.62384200     13.87593600
O           5.46065400     11.73149400     11.77327000
H           4.85166900     12.36989200     12.32679900
O           5.41759500     10.60389600     14.02816500
H           4.86155700      9.76093200     13.83864700
O           3.68758700     13.14225900     13.72128200
H           4.20782700     13.85803600     14.09150400
H           3.92868100     12.36750900     14.24848200
O           9.55250400     10.61843000     14.47557900
H           9.83170300     10.22122400     13.64326400
H           9.15513400      9.89548800     14.96923700
          25
 G =       -0.467005 Gcorr = 0.112332 a.u. Nimag =   0 Frame:    15 Step:    20 Geom:    20
C           4.16239400     10.64936000     10.45026600
C           3.87235100      9.86169200      9.32780100
C           2.95672200      8.82091900      9.46012400
C           2.35830900      8.59099100     10.69851100
C           2.70141800      9.42133800     11.77122300
N           3.58384600     10.43116900     11.64602800
H           2.71002700      8.19125500      8.60565000
H           4.88103900     11.48290400     10.40362700
H           4.35665500     10.06372300      8.37691200
H           1.64216700      7.78586400     10.83101400
H           2.26687200      9.28747100     12.76832300
P           6.10542800     12.34012300     13.56107200
O           6.68392100     12.33284400     12.21871000
O           6.63231600     11.19571100     14.55017900
H           7.56366400     10.88679400     14.23318400
O           6.37602600     13.69188200     14.34551000
H           5.86520000     13.64696500     15.25371100
O           4.53574200     12.16926400     13.72756400
H           4.19619800     11.45999300     13.01767600
O           4.81454100     13.25547900     16.80908400
H           4.01933300     13.03678000     16.31015100
H           5.21191200     12.40275000     17.01405200
O           9.25595100     10.54876000     13.36990500
H           8.89744200     10.48118400     12.47752300
H           9.65052900     11.42479800     13.40220900
          25
 G =       -0.466048 Gcorr = 0.113658 a.u. Nimag =   0 Frame:    16 Step:    21 Geom:    21
C           2.32606600      9.85735700     12.02550500
C           1.33709300      9.96700200     11.04282400
C           1.61420800     10.71532600      9.89873300
C           2.85898400     11.32524600      9.76766000
C           3.79725600     11.16697900     10.79632100
N           3.53182900     10.44788500     11.90407400
H           0.86289400     10.82098300      9.11619600
H           2.16711200      9.28337400     12.94600100
H           0.37523000      9.47942500     11.17044500
H           3.10336700     11.91708000      8.88985100
H           4.79430400     11.63098100     10.74604300
P           6.91458200     10.73757000     13.60747300
O           7.77625600      9.58639900     13.37231900
O           7.28717300     11.68974400     14.83374300
H           7.80277600     11.11794700     15.53045200
O           6.88474700     11.74994700     12.37942800
H           6.12538000     12.43785500     12.53647900
O           5.38648100     10.45401000     13.96413700
H           4.88814800     10.09053500     13.11556900
O           4.37510500     13.21483700     12.88031100
H           4.01432400     12.36297400     13.17280400
H           4.57694700     13.68159100     13.69440700
O           8.82802300      9.86101500     16.54036800
H           8.24325800      9.09757700     16.54979000
H           9.47845900      9.65637100     15.85907700
