%nproc=24
%mem=50GB
#p M062X/6-311+G(2d,p) nosymm em=GD3 counterpoise=2

Title Card Required

0 1
C           3.50078100      7.90974000     11.01080200       1
H           3.41117900      7.42740700     10.01688600       1
H           2.49339900      8.00680000     11.43698000       1
H           4.08325600      7.21026200     11.64998400       1
C           5.50974100      9.04986000     10.17317100       1
H           5.29413800      8.85415200      9.09379900       1
H           5.97312000      8.10330400     10.55779900       1
C           4.40520800      9.78597700     12.28571900       1
H           5.18646400      9.19833700     12.82161500       1
H           4.74505400     10.83274500     12.26224900       1
H           3.48541000      9.73228500     12.88759500       1
C           3.30963000     10.18152400     10.13058800       1
H           2.35545200     10.36302400     10.64603800       1
H           3.80812500     11.14847600      9.95806200       1
H           3.07169900      9.75534600      9.12651500       1
C           6.48530200     10.22214400     10.32240200       1
H           6.93623600     10.22485700     11.34339000       1
H           5.96180100     11.19085800     10.21279600       1
C           7.59098400     10.13595800      9.27522400       1
H           8.16116500     11.08170000      9.24244400       1
H           7.17548400     10.01711200      8.25512300       1
N           4.18958200      9.24375900     10.90321900       1
S           8.76333500      8.78387000      9.58459700       1
O           9.14201800      8.89260100     11.00578100       1
O           7.94550400      7.55560300      9.31257800       1
O           9.83904100      9.01130200      8.60449400       1
P           7.45247400      6.25896500     12.61172400       2
O           6.21466600      7.03569200     12.73602000       2
O           8.79831800      6.99917900     12.98280100       2
H           8.97250700      7.77343100     12.27406800       2
O           7.42509600      5.03745600     13.63811000       2
H           8.31155000      4.52126400     13.52164100       2
O           7.66661200      5.53269100     11.21865800       2
H           7.76953400      6.25537800     10.45449400       2


