%nproc=24
%mem=50GB
#p M062X/6-311+G(2d,p) nosymm em=GD3 counterpoise=4

Title Card Required

0 1
O           3.67243900      8.51085500     10.12042500       1
H           3.93197300      9.39889500     10.47556700       1
H           3.11131000      8.69084500      9.37243200       1
O           4.41556300     10.89724600     11.10308100       2
H           4.95702300     10.52220500     11.82902100       2
H           5.05604200     11.37714500     10.57377300       2
O           6.34072300      7.36789000      9.86927400       3
H           6.26271900      6.53465700     10.34283200       3
H           5.46630900      7.77544500      9.94487100       3
O           7.50021700      6.71841400     15.13437000       4
H           6.75514500      6.98626200     15.67244100       4
H           7.07432400      6.15854500     14.43277400       4   

