          46
 Energy =  -1543.98196580 a.u.  #Cluster:    1
C          10.38155500     10.63624600     11.24792500
C          11.17158900      9.51134800     11.49619200
C          10.76533100      8.26835600     10.99224400
C           9.57556700      8.18658400     10.27062900
C           8.80649100      9.32809500     10.05819900
H          11.38286100      7.37717700     11.14781100
H          10.69278800     11.63826400     11.59879000
H           9.25848700      7.23837300      9.83070400
H           7.86161300      9.29376000      9.48984700
C          12.44192500      9.67162100     12.24621800
H          13.02601300     10.53428700     11.87063500
H          12.27645000      9.82527000     13.32025200
H          13.11259000      8.80444800     12.12572500
N           9.21763000     10.53123600     10.54809600
C           8.39090500     11.73854600     10.30933900
H           7.37785100     11.55978200     10.74726900
H           8.82799000     12.60949900     10.85919700
C           8.26633200     12.07336100      8.81520400
H           8.14061000     11.15118700      8.20636400
H           7.31550200     12.63069800      8.66375400
C           9.44046300     12.89450400      8.28988700
H           9.21249800     13.29373800      7.28189600
H           9.64103600     13.77328200      8.93191200
C          10.67857700     12.00645300      8.19889600
O          10.80700500     11.29544200      7.18527900
O          11.46932300     12.01899600      9.17217500
P          13.02084600      8.93684000      8.37724300
O          11.88474500      8.08481700      8.75840400
O          13.37176500     10.08752400      9.41576100
H          12.66857100     10.87621700      9.29738600
O          14.35987700      8.07617800      8.32368200
H          15.12113300      8.71761400      8.04216300
O          12.94043800      9.62580500      6.95497900
H          12.13192800     10.32798900      6.97910800
O          10.96672600     13.73317900     11.15967300
H          11.19145400     13.15988700     10.38298900
H          11.70302800     14.32321100     11.25308200
O           5.76723500     10.61488200      9.23539000
H           6.01358500     10.08223800      8.45881200
H           4.84183400     10.43788800      9.37009900
O           6.58838100      9.01507300      7.12896000
H           6.46040100      9.25771000      6.21558600
H           7.55666200      8.91248300      7.22361000
O           9.29721000      9.01911500      7.48031000
H           9.76588000      9.84705100      7.24226100
H          10.00934100      8.41376600      7.71608100
          46
 Energy =  -1543.98150300 a.u.  #Cluster:    2
C          10.37168300     10.04836200     11.26565100
C          11.18555600      8.91415500     11.21437600
C          10.82392100      7.85343800     10.37241200
C           9.65004100      7.95103600      9.62747000
C           8.85250200      9.08887300      9.72468000
H          11.46378200      6.96868500     10.28759100
H          10.65255400     10.91822400     11.88231600
H           9.36691900      7.15722900      8.93263500
H           7.91700000      9.19059000      9.14929400
C          12.43319500      8.88208900     12.01716800
H          12.23862400      8.71530100     13.08438300
H          13.13283100      8.10179100     11.67362200
H          12.99933100      9.82917400     11.92334200
N           9.22185000     10.11737000     10.53771200
C           8.36298200     11.32267100     10.63262400
H           7.36286700     11.00640800     11.02002600
H           8.79147000     12.03119700     11.38576400
C           8.20067900     12.03731700      9.28231500
H           8.10600900     11.30724500      8.44907300
H           7.22537200     12.57250800      9.28880500
C           9.33097300     13.02090200      8.99251500
H           9.08848100     13.63883000      8.10577600
H           9.47873600     13.72843300      9.83059800
C          10.61461200     12.24175300      8.71954500
O          10.81698700     11.85386300      7.55425700
O          11.36100300     12.00235600      9.69864900
P          13.08449200      9.33477600      8.13136800
O          11.97481500      8.37374200      8.21968900
O          13.35370700     10.16774300      9.45788100
H          12.61292500     10.92712100      9.53842900
O          14.46010400      8.56552400      7.90149900
H          15.20164000      9.28401400      7.83724200
O          13.01815700     10.38408000      6.94937200
H          12.18142000     11.02799500      7.13530000
O          10.79507100     13.31170100     11.98666000
H          11.03944900     12.87561300     11.13544400
H          11.50877900     13.90897800     12.17005000
O           5.76709600     10.42529300      9.31888900
H           6.03276300     10.14895100      8.42477200
H           4.85105300     10.17697500      9.39079600
O           6.66216800      9.53073400      6.84799300
H           6.50273300      9.99448600      6.03038900
H           7.63540600      9.44679800      6.89967200
O           9.37910300      9.54183800      7.15452100
H           9.82222700     10.41632700      7.16482200
H          10.10695400      8.91753700      7.25263100
          46
 Energy =  -1543.98146690 a.u.  #Cluster:    3
C          10.32342000     10.06334400     11.21151900
C          11.08730600      8.89470900     11.15724800
C          10.66622500      7.84245300     10.33347300
C           9.48963700      7.98695600      9.59940700
C           8.74798500      9.16160600      9.69224000
H          11.26170700      6.92674400     10.25299300
H          10.64681600     10.92539100     11.82509100
H           9.16375300      7.19967400      8.91601300
H           7.81390600      9.30327400      9.12394800
C          12.34813900      8.81934100     11.93614000
H          12.16856400      8.69931600     13.01215900
H          12.99744700      7.99200500     11.60472400
H          12.96092000      9.73163300     11.79860600
N           9.17182800     10.17868700     10.49402300
C           8.37023600     11.42253100     10.58130200
H           7.33989000     11.15025700     10.92684200
H           8.80453700     12.09692200     11.36078600
C           8.28754400     12.16168100      9.23701200
H           8.14958500     11.44783200      8.39580500
H           7.35621500     12.77026500      9.23695300
C           9.49265800     13.05966800      8.97291500
H           9.29421600     13.72984000      8.11331100
H           9.70411300     13.71940400      9.83587800
C          10.70821400     12.19449900      8.65095000
O          10.83204000     11.78421300      7.48244800
O          11.48510400     11.91880600      9.59611500
P          12.94897700      9.11972800      8.00138400
O          11.77750100      8.24106800      8.13417300
O          13.32572600      9.93359500      9.31354300
H          12.64925800     10.74828000      9.41153300
O          14.25673600      8.25412000      7.72339700
H          15.04512400      8.91727400      7.63094800
O          12.91449900     10.16972000      6.81820700
H          12.12803700     10.86695800      7.02662300
O          10.98033900     13.04179700     11.96908400
H          11.20837400     12.69478800     11.06876800
H          11.72830300     13.56305400     12.22993300
O           5.77342300     10.69951000      9.44447800
H           5.99072200     10.43333000      8.53423700
H           4.84669600     10.50563200      9.54350200
O           6.51880400      9.81536500      6.91702100
H           6.36225300     10.29632100      6.10902500
H           7.48143300      9.64112400      6.92029500
O           9.23860800      9.57440100      7.09402300
H           9.74378500     10.41458200      7.10986900
H           9.91941500      8.89832300      7.18207800
          46
 Energy =  -1543.98093780 a.u.  #Cluster:    4
C          10.32553900     10.23449500     11.21266900
C          11.07996300      9.06351600     11.32082000
C          10.65698800      7.91467900     10.63854800
C           9.48446000      7.96804100      9.88664600
C           8.74827000      9.14847500      9.82273000
H          11.24843400      6.99395700     10.68056800
H          10.65528200     11.16562500     11.70202200
H           9.15618700      7.10013100      9.31052800
H           7.81509000      9.21619300      9.23983500
C          12.33245300      9.08134100     12.11645900
H          12.95032800      9.96880600     11.87701200
H          12.14091700      9.09149400     13.19707900
H          12.98263300      8.21875300     11.89451000
N           9.17553500     10.26075900     10.48272300
C           8.37792800     11.50879800     10.41011200
H           7.35957400     11.29418800     10.82471800
H           8.83976500     12.28859200     11.06633100
C           8.24987200     12.04613500      8.97647600
H           8.10549900     11.21813800      8.24891300
H           7.30872100     12.63610300      8.91325400
C           9.43272500     12.91366100      8.55632200
H           9.21860000     13.42127200      7.59532300
H           9.62875400     13.71699100      9.29187600
C          10.66606700     12.03081400      8.38741100
O          10.82926200     11.47411200      7.28613600
O          11.41117600     11.88722900      9.38590500
P          12.94474300      8.92719200      8.19111100
O          11.77791500      8.06218900      8.42130500
O          13.28723800      9.91751500      9.38627800
H          12.59534800     10.72533200      9.36676500
O          14.26532800      8.04586300      8.06214300
H          15.04985500      8.69868900      7.89376700
O          12.92629800      9.80380200      6.87456200
H          12.13268400     10.51827800      6.97438600
O          10.93288400     13.53717300     11.46878300
H          11.14655800     12.97134700     10.68881400
H          11.68048900     14.11277700     11.56628300
O           5.76475700     10.60317100      9.43510000
H           5.97486600     10.23252100      8.56088500
H           4.84132700     10.41336100      9.56831000
O           6.50870800      9.42734500      7.01952300
H           6.32970500      9.78066700      6.15254300
H           7.47294900      9.26363100      7.02811800
O           9.23775900      9.22721000      7.18170900
H           9.73902100     10.06420400      7.08338300
H           9.92156200      8.57546000      7.37132100
          46
 Energy =  -1543.97806370 a.u.  #Cluster:    5
C          10.45084200     10.35629100     11.25624700
C          11.03807400      9.08844500     11.24890700
C          10.46876000      8.07530000     10.46575500
C           9.32147300      8.35568700      9.72424800
C           8.75677700      9.62653400      9.77080600
H          10.92688100      7.08214300     10.42126200
H          10.89894100     11.18673300     11.83202600
H           8.86179000      7.59009400      9.08917000
H           7.85102900      9.88051700      9.19983400
C          12.27603200      8.86231900     12.03578600
H          12.75546300      7.89904400     11.79913800
H          13.04275500      9.62769100     11.80318800
H          12.09596700      8.89415400     13.11794100
N           9.32342300     10.60375900     10.53419600
C           8.68780400     11.94106100     10.58600300
H           7.66393800     11.82013500     11.01019000
H           9.25218300     12.59902000     11.30017500
C           8.61759100     12.61902800      9.20789200
H           8.39447400     11.88179200      8.40454900
H           7.75355900     13.31616400      9.20081100
C           9.88970400     13.38873300      8.86157500
H           9.72921400     14.01775800      7.96353700
H          10.18130400     14.08043800      9.67429000
C          11.01937400     12.40072300      8.57296900
O          11.09946300     11.93843400      7.42186400
O          11.77020900     12.09478300      9.52998100
P          12.84763100      9.05901300      8.08285100
O          11.56300400      8.36993600      8.27634200
O          13.35903100      9.89210900      9.33588700
H          12.78892000     10.78710800      9.40021800
O          14.01337700      7.99821500      7.85445900
H          14.88770200      8.53380800      7.71779400
O          12.94690600     10.02761700      6.83532800
H          12.26484700     10.83603900      7.00206500
O          11.30118900     13.29458800     11.85917600
H          11.53592400     12.90975000     10.97304900
H          12.06688100     13.78253000     12.13091800
O           6.38148900      7.93183800      9.18977500
H           6.35091000      8.55073800      8.44373800
H           5.52236000      7.52407900      9.21315900
O           6.49609000      9.85087600      7.11888700
H           6.19856300      9.71922600      6.22297900
H           7.47143100      9.91073300      7.04824300
O           9.23264200      9.93716900      7.07277000
H           9.81005300     10.72655300      7.03676600
H           9.84404300      9.22132000      7.28326900
          46
 Energy =  -1543.96797340 a.u.  #Cluster:    6
C           9.61827600     10.32285900     10.85556000
C           9.66851800      9.11670500     10.15915400
C           9.14240900      9.05920000      8.85645600
C           8.63079700     10.21846400      8.28128700
C           8.60353100     11.40699600      9.00957800
H           9.14522600      8.11678300      8.29763300
H          10.04219300     10.41169000     11.86979200
H           8.28148400     10.21535800      7.24684400
H           8.23512200     12.33970700      8.56176200
C          10.30280800      7.93382700     10.79233700
H          10.00573700      7.80606300     11.84131400
H          10.05954400      6.99493100     10.27072300
H          11.40715700      8.02701000     10.76410900
N           9.06843900     11.43731400     10.28723600
C           8.95855000     12.66763700     11.10697900
H           7.91014300     12.73128400     11.48137600
H           9.61956400     12.56433500     12.00846800
C           9.33550400     13.95977100     10.36484600
H           8.83224700     14.02408500      9.37697500
H           8.95260800     14.82258300     10.94823000
C          10.84213400     14.10054000     10.17454900
H          11.09560100     15.08509300      9.73725500
H          11.38022200     14.04800100     11.14140600
C          11.36683600     13.02220200      9.22462300
O          10.69073600     12.75984300      8.21592500
O          12.42813100     12.45199600      9.57139600
P          12.30228900      9.71700800      7.47068700
O          11.58579800      8.83391300      8.40942200
O          13.49724300     10.55019800      8.06235700
H          13.07868400     11.34420500      8.68066700
O          12.97568100      8.80750400      6.34033200
H          13.48289300      9.43330900      5.69898100
O          11.36966300     10.69120500      6.64374100
H          11.12793500     11.54360100      7.25264700
O          11.85520300     11.55738300     12.11025500
H          12.10125000     11.85332700     11.20289400
H          12.66906900     11.23188700     12.47870800
O           7.17204500      8.04728600     10.20558100
H           6.23177500      7.89615400     10.20591500
H           7.55046200      7.24978400      9.80102300
O           8.25365800      5.75672200      8.89897400
H           8.29549100      4.89884700      9.30938700
H           9.14384300      5.89378500      8.51355900
O          10.82378800      6.13008700      7.97631400
H          11.06923100      5.99318600      7.06302200
H          11.17050000      7.02635300      8.17973700
          46
 Energy =  -1543.95651900 a.u.  #Cluster:    7
C          10.39565300     10.61534600     11.21277700
C          11.05258900      9.40586300     11.47443300
C          10.43819300      8.20043400     11.07559600
C           9.17828500      8.23638700     10.47894400
C           8.54794600      9.46115200     10.24061900
H          10.95984100      7.24830100     11.20467200
H          10.86745900     11.59314300     11.46216900
H           8.69234700      7.31435200     10.14978900
H           7.55137300      9.52117600      9.73330800
C          12.39293300      9.42290600     12.11429000
H          12.74170000      8.42544200     12.41162900
H          13.15337500      9.81045000     11.39649400
H          12.43489500     10.06907300     13.00035200
N           9.16511800     10.63127400     10.60013600
C           8.49371500     11.93966100     10.31326900
H           7.46014200     11.90096000     10.73418400
H           9.03930000     12.76074200     10.85444200
C           8.43192500     12.24109400      8.80967900
H           8.31052600     11.29554800      8.22466000
H           7.50981400     12.82698400      8.61029900
C           9.64148000     13.01509000      8.28788300
H           9.40661400     13.46219000      7.29941800
H           9.88692600     13.86615800      8.95802200
C          10.85281600     12.10955800      8.13602700
O          10.90806000     11.30826100      7.17354600
O          11.76634300     12.20278200      9.01797000
P          12.68977600      8.95764000      8.27906000
O          11.37812500      8.35900100      8.63956600
O          13.25745300     10.09910900      9.27884900
H          12.81812600     11.09113700      9.16758100
O          13.90506800      7.85900100      8.28427900
H          14.78702400      8.18617200      7.95511800
O          12.82301400      9.61641000      6.80061400
H          12.19558600     10.44260400      6.60828700
O          11.00730000     13.53685000     11.17745700
H          11.46606600     13.24903300     10.33503200
H          11.59445900     14.13875500     11.61227800
O           5.94500900     10.13537400      8.96959700
H           6.27888500     10.39824700      8.08797500
H           5.49202400      9.29802000      8.79607200
O           6.59438100      8.86019100      7.01987800
H           6.40418500      8.74964600      6.09742300
H           7.58076700      8.75894900      7.11568000
O           9.08423700      9.41528800      7.52972900
H           9.55070200     10.06382400      6.96519800
H           9.79845500      8.83045300      7.89573400
          46
 Energy =  -1543.94203090 a.u.  #Cluster:    8
C           9.52048000     10.69349600     11.08986500
C           9.41543900      9.39282200     10.56515400
C           8.74114200      9.21908700      9.33955300
C           8.21516100     10.32419600      8.67682900
C           8.33612800     11.60305000      9.23150700
H           8.66925600      8.20400700      8.89156200
H          10.08603800     10.88338300     12.03029900
H           7.71800800     10.20456800      7.70932500
H           7.94703600     12.48781900      8.71208200
C          10.03933200      8.25642900     11.27383500
H          11.04167300      8.04865600     10.83852300
H          10.18550500      8.41847200     12.34719100
H           9.45582100      7.31130500     11.16576200
N           8.98429400     11.77057500     10.42973900
C           9.12782400     13.13706800     11.02750100
H           8.11966600     13.49110000     11.34160100
H           9.75121800     13.05720500     11.96522200
C           9.78385200     14.14355200     10.07201800
H           9.33979400     14.08813500      9.05398400
H           9.55971600     15.16846600     10.43843900
C          11.29811700     13.96672400      9.97102900
H          11.74387700     14.79800900      9.38531200
H          11.77350000     14.01119500     10.97461300
C          11.64912300     12.65160800      9.29247000
O          11.24468500     12.44907400      8.12174700
O          12.30227800     11.80262800      9.97719400
P          11.88606600      9.00304700      7.69449700
O          10.64581600      8.22276100      7.41338800
O          12.03483700      9.34260100      9.26343900
H          12.37158000     10.34112400      9.53984700
O          13.21684500      8.13937500      7.26360800
H          14.00643100      8.66407200      6.96743300
O          12.15284600     10.36407900      6.89030300
H          11.76135800     11.30724200      7.29941300
O          11.58257400     12.08836200     12.54791600
H          12.09336800     11.94413400     11.70033000
H          12.19311800     11.93119300     13.25650800
O           8.27999400      5.80514900     10.60327600
H           7.73336900      6.22743100      9.92806600
H           8.90462100      5.26860000     10.09416100
O           8.95988700      6.32033500      8.34449800
H           8.67278300      6.25689300      7.39837900
H           9.83951600      6.75191100      8.29770500
O           9.09749600      7.12628600      5.90741800
H          10.04759600      6.92356100      5.86148300
H           9.08096000      8.04923800      6.21599600
          46
 Energy =  -1543.93499000 a.u.  #Cluster:    9
C          10.33742600     10.54525700     11.19745700
C          11.07239700      9.39706400     11.53466300
C          10.60791700      8.14324600     11.09518600
C           9.42525900      8.06742500     10.36039000
C           8.71027100      9.23087400     10.05619800
H          11.19072400      7.24129900     11.29679800
H          10.69478700     11.56117100     11.48415200
H           9.06403000      7.10845300      9.98098600
H           7.76333800      9.19371200      9.47044100
C          12.34459000      9.53335200     12.28819800
H          12.34262600     10.37361600     12.99439700
H          12.61533700      8.62887900     12.84668900
H          13.17836300      9.72624600     11.57190900
N           9.18088500     10.45209600     10.46541700
C           8.43089400     11.69571000     10.10269600
H           7.34870900     11.54406100     10.36848700
H           8.79784400     12.55079600     10.73324100
C           8.55235600     12.03175900      8.61096400
H           8.61290700     11.09575600      7.99777700
H           7.60749900     12.52114200      8.28907800
C           9.73065300     12.94490400      8.27193400
H           9.65990700     13.27578400      7.21462300
H           9.69920900     13.87164500      8.88204100
C          11.04957900     12.23116600      8.48372500
O          11.40727400     11.32085600      7.67959400
O          11.76461000     12.52875200      9.48536200
P          12.54304000      9.43905000      8.27105300
O          11.12545200      8.98776200      8.30743400
O          13.16957100     10.31816100      9.48733000
H          12.87973500     11.33160000      9.57522600
O          13.51897600      8.11847100      8.46452500
H          14.48316600      8.26360200      8.29437600
O          13.22599600      9.97794700      6.87744800
H          12.80901500     10.79118700      6.45707100
O          10.46152800     13.55145000     11.51172900
H          11.09330700     13.47363400     10.74262100
H          10.83365500     14.18447700     12.10788400
O           5.86890500     10.37823600      9.51315800
H           6.05547700     10.19950500      8.56403500
H           5.05600100      9.93654700      9.71775800
O           7.16126800      9.32142400      7.51459600
H           6.90285500      8.75709600      6.79880800
H           8.07810600      9.71351800      7.23124800
O           9.46971900      9.65974400      6.51691800
H          10.04431000     10.42767200      6.78420900
H           9.93055300      8.89392000      6.96019700
          46
 Energy =  -1543.92342330 a.u.  #Cluster:   10
C          10.44454400     10.41093400     11.19105800
C          11.08613100      9.19661900     11.48853000
C          10.50349200      7.99604900     11.04372700
C           9.31722300      8.03901800     10.31163000
C           8.70711100      9.26783700     10.03290300
H          11.00238200      7.04145200     11.22877100
H          10.88989000     11.38527500     11.49902800
H           8.87652600      7.12330100      9.90904700
H           7.77522100      9.32444300      9.43259400
C          12.39065100      9.20704100     12.19752500
H          12.53441500     10.08785100     12.83656600
H          12.55247000      8.31614400     12.81726200
H          13.21116800      9.22667900     11.44236700
N           9.27805700     10.43477500     10.47112100
C           8.62620700     11.74581700     10.15952600
H           7.54594400     11.68122800     10.47329400
H           9.09979300     12.55398800     10.78068300
C           8.70260200     12.10248800      8.66978800
H           8.57580300     11.18628600      8.03701500
H           7.82796800     12.74337700      8.42472400
C           9.98210800     12.83423000      8.26557100
H           9.89524000     13.19931500      7.22079400
H          10.13245300     13.73890100      8.89199800
C          11.18711400     11.92355500      8.37653900
O          11.32917600     10.96813700      7.55807000
O          12.01849100     12.10597500      9.31374300
P          12.20235200      8.93082200      8.06256000
O          10.73622000      8.69415900      8.17122000
O          13.01160100      9.68276600      9.25591800
H          12.91380300     10.73240400      9.34511600
O          12.97337400      7.47430100      8.19176600
H          13.93946700      7.47360500      7.97701600
O          12.88463600      9.38865800      6.64099400
H          12.56053100     10.25606000      6.24605300
O          10.98084600     13.35481700     11.37902300
H          11.56188900     13.15078400     10.59176200
H          11.46152900     13.96235400     11.92235000
O           5.84899300     10.79414600      9.64715300
H           5.85349300     11.09658400      8.72381900
H           5.76100200      9.83869600      9.57966300
O           6.76107600      9.68408200      7.70729600
H           6.39119400      9.13403200      7.02328900
H           7.70786700      9.91518500      7.36161500
O           9.04506000      9.62921600      6.56283100
H           9.76505800     10.27731500      6.79820700
H           9.40785000      8.77931900      6.92848500
