%nproc=24
%mem=50GB
#p M062X/6-311+G(2d,p) nosymm em=GD3 counterpoise=3

Title Card Required

0 1
C           4.25380700     10.13481100     10.82671500     1
H           3.26884000      9.69697000     11.06212300     1
H           4.27756000     11.19904000     11.10868800     1
H           4.98359400      9.60453900     11.48639700     1
C           4.62312800      8.43605400      9.11952400     1
H           3.61083200      8.02554100      9.34488700     1
H           5.31333700      7.99682600      9.89363300     1
C           5.94838800     10.53886900      9.09731900     1
H           6.19766200     10.50164200      8.02768000     1
H           6.00129500     11.58511600      9.44572900     1
H           6.75183300      9.98304400      9.64251200     1
C           3.56934900     10.60734700      8.52943500     1
H           3.51441300     11.68646000      8.75322600     1
H           3.79645500     10.49395700      7.45588600     1
H           2.57056300     10.17152300      8.70909500     1
C           5.08299600      8.01400200      7.72334100     1
H           6.13466400      8.33523800      7.53863700     1
H           4.47055900      8.49201400      6.93697000     1
C           4.98317800      6.49583800      7.59176700     1
H           5.13567600      6.19466700      6.53956000     1
H           3.97828600      6.13117500      7.86081400     1
N           4.60673400      9.93166200      9.37673900     1
S           6.20856000      5.59229500      8.60092800     1
O           7.42570600      6.45182000      8.55320600     1
O           5.61841500      5.62411400      9.98817800     1
O           6.31271300      4.27702700      7.99659800     1
O           3.66058600      7.04163700     11.40331300     2
H           3.95639900      6.95434500     12.30633400     2
H           4.26540800      6.43870000     10.90927300     2
O           6.63877700     11.62983700     11.79931100     3
H           6.86326900     10.68510200     11.76940900     3
H           7.23773800     11.99402000     12.44641200     3

