%nproc=16
%mem=20GB
#p M062X/6-311+G(2d,p) nosymm em=GD3 counterpoise=5

Title Card Required

0 1
C           8.76192700     11.84600100     10.14218100       1
C          10.01049700     11.98735600     10.74120100       1
C          11.15425000     11.54772000     10.07987300       1
C          11.03474300     10.96744900      8.81439500       1
C           9.76835800     10.87813800      8.22409800       1
H          12.14012400     11.63580400     10.55882400       1
H           7.84136600     12.11701000     10.67199600       1
H          10.08373100     12.40010500     11.75342900       1
H           9.64023200     10.42689700      7.22879300       1
C          12.21454600     10.41360300      8.10869500       1
H          13.01283700     10.11074900      8.81975500       1
H          11.97538600      9.49034700      7.54951200       1
H          12.66229700     11.12875700      7.40874900       1
N           8.65945000     11.32707800      8.88340500       1
C           7.33017100     11.17170300      8.24117000       1
H           6.98697600     12.18224300      7.92129100       1
H           7.44799200     10.55318100      7.31505100       1
C           6.25889400     10.51538300      9.13875800       1
H           6.28334600     10.94613200     10.16449000       1
H           5.26132300     10.79417700      8.73527400       1
C           6.35678500      8.99572800      9.21526000       1
H           6.19868700      8.52964900      8.22733200       1
H           5.56207500      8.58898000      9.86671000       1
S           7.96945200      8.48216500      9.85377400       1
O           7.89327100      7.09157800     10.30666500       1
O           8.26766000      9.49879700     10.89981700       1
O           8.85500000      8.66684000      8.65667700       1
P          11.46665600      6.59772500      9.79523500       2
O          11.79408800      7.53182200     10.87524300       2
O          12.71958400      5.66345100      9.48176500       2
H          12.44124400      5.01799800      8.72668700       2
O          10.31970400      5.53831900     10.07554500       2
H           9.41001900      6.03350400     10.23266800       2
O          11.16554300      7.24090800      8.37742700       2
H          10.27359500      7.80729900      8.42902300			 2
O          11.88158700     11.21559900     12.96100300       3
H          12.18417800     11.20935600     13.86263900       3
H          11.19653400     10.49527000     12.92206900       3
O          13.74306700      9.90675600     11.18367700       4
H          13.29168400      9.06824200     11.04414300       4
H          13.19825800     10.36097400     11.83564700       4 
O          10.16074400      9.19516000     12.86500500       5
H          10.65976700      8.51360600     12.40027300       5
H           9.40239000      9.36045800     12.25479500       5


