%nprocshared=24
%mem=50GB
#p M062X/6-311+G(2d,p) nosymm em=GD3 scrf=(smd,solvent=water)

Title Card Required

0 1
 C                  2.85190000    0.67382300    0.06468700            
 C                  1.67192400   -0.04240600   -0.17715500            
 C                  1.66753500   -1.43209900   -0.25396800            
 C                  2.88627400   -2.06824800   -0.07887200            
 C                  4.06947100   -1.34643600    0.16409500            
 C                  4.07589100    0.03753000    0.24057700            
 H                  0.75581500   -1.98372500   -0.44048100            
 H                  2.93074900   -3.14886900   -0.13001300            
 H                  4.99845800   -1.88697400    0.29492800            
 H                  4.98286600    0.59713400    0.42769700            
 H                  3.09859000    2.80689400    0.22562700            
 C                  1.17486700    2.10425700   -0.14390200            
 H                  0.62231900    3.02803000   -0.18622600            
 N                  2.48641900    2.01440700    0.07540800            
 N                  0.65383100    0.89638800   -0.30011800            









