%nprocshared=24
%mem=50GB
#p M062X/6-311+G(2d,p) nosymm em=GD3 counterpoise=2 

Title Card Required

0 1
 C                  2.85190000    0.67382300    0.06468700            1
 C                  1.67192400   -0.04240600   -0.17715500            1
 C                  1.66753500   -1.43209900   -0.25396800            1
 C                  2.88627400   -2.06824800   -0.07887200            1
 C                  4.06947100   -1.34643600    0.16409500            1
 C                  4.07589100    0.03753000    0.24057700            1
 H                  0.75581500   -1.98372500   -0.44048100            1
 H                  2.93074900   -3.14886900   -0.13001300            1
 H                  4.99845800   -1.88697400    0.29492800            1
 H                  4.98286600    0.59713400    0.42769700            1
 H                  3.09859000    2.80689400    0.22562700            1
 C                  1.17486700    2.10425700   -0.14390200            1
 H                  0.62231900    3.02803000   -0.18622600            1
 N                  2.48641900    2.01440700    0.07540800            1
 N                  0.65383100    0.89638800   -0.30011800            1
 P                 -2.93121500   -0.12679500    0.12447300            2
 O                 -2.56717300   -0.17485800    1.57559100            2
 O                 -4.37233100    0.59844000   -0.09709700            2
 H                 -4.28270100    1.55855200   -0.18798800            2
 O                 -1.94352600    0.46560300   -0.85766500            2
 H                 -0.36545600    0.70464200   -0.48335500            2
 O                 -3.32498800   -1.63723600   -0.30228800            2
 H                 -3.47720500   -1.72343900   -1.25540700            2

