%nproc=24
%mem=50GB
#p M062X/6-311+G(2d,p) nosymm em=GD3 counterpoise=4

Title Card Required

0 1
O          11.87036000      9.04756600      7.75374900        1
H          12.40577400      8.95960100      8.54457100        1
H          11.46318900      9.93151900      7.83167600        1
O           8.07137000     10.66619200      9.18780000        2
H           8.26703800      9.75984300      9.51526700        2
H           7.47084300     10.53223600      8.45507600        2
O           8.02295300     12.17028200     11.57041400        3
H           7.99825700     11.72363400     10.70748000        3
H           7.11486800     12.33994200     11.80241500        3
O          10.62587100     11.48567000      8.27213200        4
H           9.73085100     11.23548000      8.55006500        4
H          11.01498000     11.91229400      9.03709300        4


