          36
 Energy =  -1201.53123910 a.u.  #Cluster:    1
C          16.96728700      6.21614600      4.12488100
H          17.39438600      5.53484200      3.37215500
H          16.05591900      5.76855600      4.54311000
H          16.66432400      7.13840000      3.56576700
C          18.21796600      5.31820800      6.02180100
H          18.63953200      4.50874600      5.40206800
H          18.93999400      5.52978700      6.83307900
H          17.29043700      4.94886100      6.48743900
C          19.25831300      6.99453600      4.57105600
H          19.33494500      8.10794500      4.54002400
H          20.14265800      6.65034300      5.13195700
H          19.34520000      6.66788000      3.52058600
C          17.35841400      7.63750500      6.07350900
H          16.41591100      7.25599400      6.51702000
H          17.05273700      8.47890500      5.39077800
C          18.30211600      8.14461900      7.17036300
H          19.36749000      7.92039300      6.93498400
H          18.10199400      7.62700600      8.12665200
C          18.16400700      9.65619400      7.36625000
H          18.94581100     10.03244100      8.05089400
H          17.19224300      9.91817900      7.82125800
N          17.96685500      6.54983800      5.19893600
C          18.30579300     10.37411200      6.01368300
O          17.28613200     10.89414400      5.54380600
O          19.42776200     10.32748400      5.45556700
P          18.00848500      9.93725500      2.28717400
O          17.85377200      8.50126000      2.56293200
O          19.39456200     10.56289100      2.73595700
H          19.43888800     10.55215200      3.80387200
O          17.96533500     10.19414000      0.71448900
H          18.08432800     11.21166000      0.57191100
O          16.87005300     10.87840900      2.85606600
H          17.01281800     10.97246800      3.91293900
O          21.30685200      8.53034700      6.11264700
H          20.63508200      9.23259500      5.90028700
H          22.14163300      8.97577300      6.04410700
          36
 Energy =  -1201.53103870 a.u.  #Cluster:    2
C          17.07884300      6.22461100      3.90278500
H          17.62229200      5.56939300      3.20359900
H          16.12240600      5.75631300      4.17012400
H          16.84887700      7.15839400      3.32784700
C          18.04447000      5.29019500      5.94332600
H          18.56596600      4.50074100      5.37568400
H          18.63175600      5.48773100      6.85959200
H          17.06207900      4.89959800      6.25320400
C          19.26979700      7.00834600      4.70188900
H          19.33117800      8.12280100      4.68386500
H          20.06295700      6.67643800      5.39180200
H          19.52438900      6.68791900      3.67697700
C          17.16144300      7.60116200      5.91989200
H          16.17299200      7.19755400      6.22105200
H          16.93823100      8.45044800      5.21526100
C          17.93373700      8.10285900      7.14645400
H          19.02044600      7.88601800      7.06565000
H          17.59879600      7.57463400      8.05866000
C          17.75949600      9.61169100      7.33605900
H          18.43667500      9.98556300      8.12543700
H          16.73226400      9.86302400      7.65516200
N          17.90449400      6.53955900      5.12074200
C          18.08032600     10.34617700      6.02335600
O          17.12675900     10.85030900      5.41601200
O          19.27028400     10.32887500      5.63205800
P          18.33337500      9.96455600      2.28565300
O          18.17103100      8.52046100      2.51049600
O          19.62495300     10.60745900      2.94304900
H          19.51122000     10.58053400      4.00604000
O          18.51450300     10.25227600      0.72821500
H          18.62840100     11.27460200      0.62174700
O          17.10353900     10.87133300      2.69867700
H          17.09128000     10.95078500      3.76674600
O          21.20225100      8.58796700      6.35461600
H          20.50174400      9.25658000      6.14568900
H          22.01678600      9.06310700      6.24258700
          36
 Energy =  -1201.53061730 a.u.  #Cluster:    3
C          17.09700800      6.22457800      4.01041000
H          17.59086000      5.57450300      3.27058600
H          16.15559500      5.75991800      4.33148500
H          16.84045300      7.16665500      3.46085900
C          18.18751100      5.26005400      5.97423500
H          18.67628500      4.47909900      5.36694300
H          18.82731500      5.44644000      6.85695400
H          17.22516200      4.86376700      6.33524800
C          19.33639200      6.98657400      4.67654600
H          19.37457300      8.09817100      4.59603800
H          20.16606300      6.71164800      5.35176400
H          19.55470700      6.61294300      3.66240200
C          17.31437100      7.57480200      6.03503000
H          16.35216700      7.16517900      6.40529200
H          17.03670800      8.42696900      5.35381000
C          18.17114400      8.07476900      7.20498600
H          19.24582700      7.83386000      7.06183100
H          17.88237400      7.56266200      8.14214100
C          18.03925500      9.58857200      7.38957900
H          18.77531300      9.95601500      8.12771800
H          17.04096300      9.86235000      7.77557300
N          17.99974000      6.51962600      5.17758900
C          18.28270800     10.30824300      6.05215200
O          17.29544400     10.81296000      5.50126500
O          19.44566000     10.28251500      5.58785100
P          18.28866800      9.93445600      2.29162400
O          18.12615600      8.48901600      2.50549100
O          19.62595300     10.55660900      2.87480600
H          19.57690100     10.53093100      3.94116800
O          18.37591300     10.24384900      0.73036900
H          18.49797500     11.26608000      0.63183100
O          17.09677700     10.84729300      2.79299500
H          17.15643300     10.92065300      3.85965400
O          21.36699400      8.46575800      6.13543300
H          20.67743400      9.16388100      5.99433300
H          22.18723200      8.90861400      5.95401200
          36
 Energy =  -1201.52897280 a.u.  #Cluster:    4
C          17.09686500      6.26865300      3.92762800
H          17.67305700      5.73410500      3.15383900
H          16.19350700      5.69584800      4.17209600
H          16.77343200      7.22503600      3.44284500
C          18.11797900      5.26055200      5.90694700
H          18.66009300      4.51867800      5.29566300
H          18.70645800      5.43092000      6.82781000
H          17.15181800      4.82230400      6.20316400
C          19.27914600      7.06715800      4.73871200
H          19.30259200      8.18603000      4.74352400
H          20.08392100      6.74665400      5.42052600
H          19.54478800      6.77203300      3.70878000
C          17.17021500      7.54218100      6.01175200
H          16.22131200      7.07296200      6.34341600
H          16.86669500      8.39685500      5.34518900
C          17.96736900      8.05733100      7.21712100
H          19.04143600      7.78110000      7.15064900
H          17.60728800      7.58087400      8.14869200
C          17.86808300      9.57916600      7.35326500
H          18.59287900      9.94983100      8.10135300
H          16.86675500      9.88729300      7.70442200
N          17.93190900      6.54475800      5.14894800
C          18.16418900     10.25441000      6.00448100
O          17.21377400     10.78653200      5.41871300
O          19.33452200     10.16040300      5.56265500
P          18.30415200      9.88452400      2.23346100
O          18.12396700      8.44059600      2.44115200
O          19.62134300     10.50040000      2.86689700
H          19.53920800     10.45001600      3.93033200
O          18.44784000     10.19714900      0.67725000
H          18.57684600     11.21930900      0.58546500
O          17.09919700     10.80362200      2.69377900
H          17.12629500     10.88170400      3.75895400
O          21.24062600      8.53249900      6.54867100
H          20.54825100      9.16793500      6.23616500
H          22.05222700      9.02059200      6.48568200
          36
 Energy =  -1201.52705700 a.u.  #Cluster:    5
C          17.04812300      6.28320200      4.07764800
H          17.61098500      5.86229900      3.22406400
H          16.23650800      5.59798800      4.35281300
H          16.58779500      7.21887300      3.68340000
C          18.22893200      5.29967400      5.98488900
H          18.76021700      4.57992200      5.33806200
H          18.86668500      5.48969100      6.86843000
H          17.29977800      4.82517800      6.33756900
C          19.25463200      7.13545700      4.75039700
H          19.20719200      8.24663600      4.64073400
H          20.09373100      6.94143700      5.44329600
H          19.52245600      6.74711200      3.75315500
C          17.21768300      7.54932700      6.16183800
H          16.34306800      7.02554100      6.59971500
H          16.78830100      8.36255200      5.51440000
C          18.08944700      8.15878800      7.26717000
H          19.15855600      7.88059200      7.15478200
H          17.79541300      7.75088200      8.25364600
C          17.98373700      9.68628700      7.30146300
H          18.75096500     10.11152700      7.97502200
H          17.00380000     10.01122800      7.69562400
N          17.95283300      6.57858800      5.24572500
C          18.18428500     10.27678600      5.89620700
O          17.18339000     10.72024200      5.32033700
O          19.33731100     10.21409100      5.40696200
P          18.22746000      9.78862000      2.09147900
O          18.18362400      8.33438600      2.28431200
O          19.50103900     10.52480100      2.68649200
H          19.45769800     10.47962400      3.74954200
O          18.28768700     10.13283800      0.53640300
H          18.31654100     11.16312000      0.45477100
O          16.95582600     10.58707500      2.60061100
H          17.03484300     10.72134300      3.65396000
O          21.28776900      8.59624800      6.30863800
H          20.58702500      9.24075500      6.03120300
H          22.10469300      9.04730100      6.13524400
          36
 Energy =  -1201.51246490 a.u.  #Cluster:    6
C          17.19626400      6.03217000      3.96520200
H          17.61633800      5.19793900      3.38525400
H          16.17685100      5.77470800      4.28228100
H          17.11666300      6.90319800      3.25277600
C          18.18456500      5.23774000      6.08285100
H          18.53275100      4.32841200      5.56438200
H          18.90403400      5.44530800      6.89586700
H          17.21184400      5.00864700      6.54879900
C          19.45233600      6.75969800      4.61189800
H          19.36632800      7.45904400      3.73528000
H          20.05550900      7.34150400      5.35807400
H          20.02363700      5.88267200      4.29320900
C          17.44439900      7.61041000      5.84345300
H          16.41701400      7.34619600      6.16806700
H          17.31222700      8.42238300      5.06314400
C          18.26995100      8.13344700      7.02373300
H          19.35823300      8.16586700      6.74831900
H          18.18484400      7.46439900      7.89924500
C          17.83111400      9.54701000      7.41753100
H          18.44152900      9.91788800      8.26404000
H          16.77776900      9.56671500      7.75963300
N          18.08204800      6.41244600      5.13395200
C          17.99385600     10.48046400      6.22111700
O          16.93697000     10.76117900      5.58576300
O          19.14729500     10.85586400      5.89152800
P          18.30499500     10.13135000      2.73850300
O          17.99257300      8.70544500      3.04226600
O          19.71011800     10.61618200      3.42794500
H          19.60128800     11.14319100      4.34395400
O          18.56531400     10.37342400      1.13847100
H          18.68778300     11.32008600      0.85574800
O          17.25696300     11.26672200      3.13624100
H          16.97414600     11.31488600      4.23739800
O          20.97696700      9.07378800      5.62359500
H          20.60731500      9.78009700      6.20145600
H          20.89818900      9.44953100      4.72903100
