%nproc=24
%mem=50GB
#p M062X/6-311+G(2d,p) nosymm em=GD3 counterpoise=2

Title Card Required

0 1    
O          11.10099700     15.03829900     12.28057000         1
H          11.43850000     15.71673600     11.64326400         1
H          11.17454000     14.21564600     11.80568200         1
O          12.77372600     15.15883300     14.51086000         2
H          13.60812700     15.22178800     14.03477300         2
H          12.12472400     15.00322100     13.80235900         2 


