%nproc=24
%mem=50GB
#p M062X/6-311+G(2d,p) nosymm em=GD3 counterpoise=3

Title Card Required

0 1
C           4.76389400     14.63219100      4.47147500       1
C           3.40291300     14.36041200      4.66805200       1
C           3.00161200     13.03654100      4.82650200       1
C           3.95884200     12.02317300      4.78615500       1
C           5.29781700     12.37620500      4.58632000       1
N           5.68944500     13.65571700      4.43088700       1
H           1.95061800     12.79329800      4.98085200       1
H           5.13602000     15.66096600      4.34271600       1
H           2.68097200     15.17153500      4.69616600       1
H           3.67468000     10.98233300      4.90713200       1
H           6.09484900     11.62477400      4.54650400       1
O           9.64810800     16.75065400      1.10573700       2
H           8.99144000     17.46703700      1.20730700       2
H           9.15297700     16.02305500      0.73097700       2
O           7.68330200     18.59730100      1.78910100       3
H           7.44112900     18.04442800      2.55279000       3
H           8.10762200     19.36038200      2.18212400       3




