          26
 Energy =    -1099.70176010 a.u.  Frame:     1 Step:     1 Geom:     1
C          11.42142600     12.21216700     11.83697300
C          10.69553800     12.42526600     10.66204000
C           9.23103700     12.23001200     12.29546000
N          10.48683400     12.07680500     12.85848300
H          10.70157100     12.06644500     13.86229900
H          12.47578200     12.14390800     12.00676500
H          11.04182900     12.55262600      9.65658600
H           8.30366400     12.18452500     12.84959500
N           9.34217100     12.43792200     10.96375300
P           9.71927400     14.38205900     15.30595200
O          10.84520600     13.48555600     15.03760800
O           8.33100300     13.66673100     15.00969500
H           7.73876600     14.23859600     14.37777700
O           9.68136400     14.80886300     16.83063300
H           8.91441900     15.49092300     16.95222600
O           9.64557900     15.77651300     14.54419300
H           9.95685500     15.66745100     13.55729500
O          10.19160700     15.45125200     11.78970300
H           9.38463300     15.18217500     11.32322300
H          10.80737700     14.72804900     11.64533500
O           7.81500100     14.55777300     10.45465500
H           8.11576100     13.61609900     10.33577800
H           7.48479600     14.84377100      9.61289300
O           6.86940700     15.13139800     13.08216500
H           7.13144600     14.87350700     12.18431100
H           7.16766300     16.03962700     13.16462100
          26
 Energy =    -1099.68839400 a.u.  Frame:     2 Step:     2 Geom:     2
C          10.01717500     13.39729200     10.41408900
C           8.77669200     13.08178200      9.85221400
C           8.68612900     12.50223200     11.97347100
N           9.95037700     13.02009000     11.75147400
H          10.66321100     13.19937000     12.46335000
H          10.89066600     13.83232600      9.97829200
H           8.42934900     13.20663600      8.84607600
H           8.33688600     12.13085300     12.92518900
N           7.96474800     12.53132600     10.82952100
P          10.10910100     14.30943300     15.13320300
O          10.92663300     14.27528400     13.91141400
O           8.65272500     13.69884100     15.05619400
H           8.09508700     14.20406500     14.31771300
O          10.78028300     13.42373400     16.26873400
H          10.14028700     13.40456000     17.07797000
O           9.88140400     15.74396900     15.76983600
H          10.66272100     16.36436200     15.46762800
O          12.12423000     17.27616800     14.74908600
H          11.94820900     17.14743200     13.81071100
H          12.86292000     16.68886700     14.93726500
O           5.45903400     12.91058000     11.68054600
H           6.13883000     12.67807700     10.99704200
H           5.31805600     12.10058300     12.16049700
O           7.13530400     14.71622300     12.95792900
H           7.66422400     14.97226300     12.20377800
H           6.46572900     14.10366800     12.58679300
          26
 Energy =    -1099.68991750 a.u.  Frame:     3 Step:     3 Geom:     3
C          10.56054200     11.39532300     11.87859700
C           9.54370700     11.15482400     10.95083800
C           9.47786700     13.30178400     11.42961600
N          10.51656700     12.75652300     12.16456400
H          11.04800500     13.23884100     12.89121000
H          11.26747600     10.73268300     12.32867900
H           9.25589000     10.24037200     10.47365500
H           9.20110500     14.34544400     11.45716000
N           8.88266600     12.34349400     10.68427400
P           9.61066400     14.54683800     15.09847800
O          10.68400500     14.57979500     14.09351100
O           8.27709200     13.77967300     14.73726000
H           7.85420300     14.20950500     13.87480400
O          10.09830800     13.77707200     16.40008500
H           9.29827200     13.70492100     17.04794000
O           9.10022400     15.96505600     15.59947500
H           9.82469300     16.67615100     15.37003000
O          11.24348300     17.75401800     14.79167800
H          12.00557400     17.25772000     15.10765200
H          11.20393000     17.55578300     13.84946100
O           6.39201200     13.26792200     10.31461000
H           7.08860000     12.56314200     10.41391500
H           6.67789100     13.74338900      9.53668800
O           7.00280700     14.83546100     12.45882500
H           6.78778100     14.22446900     11.71716800
H           6.16664200     15.20981700     12.71984200
          26
 Energy =    -1099.68747790 a.u.  Frame:     4 Step:     4 Geom:     4
C          10.22628200     11.29048500     11.81899500
C           9.30638300     11.27624800     10.76765800
C           9.61626600     13.38494300     11.31668200
N          10.42255600     12.62773900     12.15007900
H          10.94924700     12.98079100     12.95039300
H          10.72421900     10.49096000     12.32343800
H           8.90672400     10.44760100     10.22017000
H           9.55693000     14.46385100     11.35010900
N           8.93676300     12.57919200     10.47066300
P           9.60188900     14.57277000     15.03841400
O          10.74155100     14.37080800     14.13153300
O           8.17874000     14.06541300     14.57505000
H           7.92525000     14.53312000     13.66637300
O           9.82243500     13.76430000     16.38852100
H           8.97275600     13.86584400     16.96492100
O           9.33301200     16.07713800     15.47155400
H          10.20323000     16.62611100     15.31487700
O          11.85393400     17.39252900     14.87737300
H          12.47390200     16.76993000     15.27090600
H          11.87206100     17.18444800     13.93654100
O           6.47970100     13.42092300     10.29148900
H           7.35056500     13.28069700      9.82739600
H           6.37701900     12.60268500     10.77990700
O           7.37058700     15.19565800     12.14383400
H           7.04610200     14.54778000     11.47528000
H           6.68190500     15.84805500     12.21785900
          26
 Energy =    -1099.69157680 a.u.  Frame:     5 Step:     5 Geom:     5
C           9.60700800     11.89293900     10.55428000
C          10.66740700     12.75487800     10.27730000
C           9.10187800     13.96954000     11.23761800
N           8.61593600     12.67064400     11.15319300
H           7.76423100     12.31422300     11.57213600
H           9.49019600     10.84614300     10.37694700
H          11.60960200     12.55467700      9.80881600
H           8.54731200     14.79645800     11.66054100
N          10.33989000     14.03348700     10.70912900
P           9.70005200     14.69767900     14.96861900
O           9.70118200     13.38825100     14.30186500
O           8.27445200     15.28888700     15.36849400
H           7.67159500     15.29332900     14.52503900
O          10.41983100     14.61253100     16.38175500
H          10.41768700     15.56093100     16.79184900
O          10.35290900     15.91223600     14.20327600
H          11.07003300     15.56857900     13.49783600
O          12.13006100     15.14747800     12.27537900
H          12.22421600     14.19586800     12.38347600
H          11.56508500     15.21408800     11.46023800
O           7.31165900     12.17841700     13.33508100
H           7.02848600     11.51055300     13.95522700
H           8.16083200     12.52479500     13.70047200
O           6.45753000     14.86003200     13.11393600
H           5.53444600     14.97726700     13.32433500
H           6.61649800     13.90610900     13.16317900
          26
 Energy =    -1099.69011850 a.u.  Frame:     6 Step:     6 Geom:     6
C           8.82265900     14.12767900     10.85058300
C          10.19831500     14.34960800     10.81310300
C           9.90607700     12.35956500     11.70689700
N           8.64533100     12.85776000     11.39879900
H           7.75721600     12.43342200     11.63618300
H           8.00011800     14.75157600     10.56375200
H          10.74285300     15.20380600     10.46896000
H          10.07688800     11.41360800     12.19110000
N          10.85433000     13.24359100     11.34023000
P           9.63470100     14.50430100     14.72961300
O           9.41067700     13.10543800     14.33678400
O           8.38178200     15.48670400     14.66112700
H           7.87652200     15.34081000     13.76842600
O          10.00993600     14.58849400     16.27287000
H          10.18323800     15.57979900     16.50251900
O          10.72940800     15.33772100     13.96075800
H          11.51372600     14.70303500     13.62948500
O          12.86970900     14.01653300     12.86687100
H          12.36615800     13.30501600     12.38704500
H          13.04856200     14.65068000     12.17156400
O           6.98075000     12.17202300     13.27708200
H           6.54829100     11.55505000     13.85972700
H           7.80058600     12.45559600     13.74653300
O           6.47505600     14.87497100     12.55303500
H           5.64459400     15.16929600     12.92270600
H           6.53252300     13.93393500     12.77426600
          26
 Energy =    -1099.68817460 a.u.  Frame:     7 Step:     7 Geom:     7
C          10.61570500     11.38605400     11.71205600
C           9.76930700     11.43298000     10.60202500
C           9.60985800     13.38379300     11.60964700
N          10.51148000     12.62571100     12.33792800
H          10.94370000     12.88827400     13.22384000
H          11.24593000     10.60500900     12.07850900
H           9.56975700     10.68543400      9.86123400
H           9.32129400     14.39626400     11.85703000
N           9.15420200     12.67406900     10.55316700
P           9.71873100     14.54078100     15.35579800
O          10.86470400     14.18617200     14.50530800
O           8.45169900     13.59573400     15.27899300
H           7.94484000     13.78495000     14.38520500
O          10.10286500     14.49904600     16.89147800
H           9.23757700     14.68603200     17.43101100
O           9.15168500     16.00860100     15.10585400
H           9.58112200     16.37285100     14.23458600
O          10.67600200     16.67130100     12.66737000
H          11.28276500     17.39130900     12.84076900
H          11.20038600     15.87061800     12.80160400
O           6.78242200     13.78647400     10.14678000
H           7.40984700     13.01934500     10.07314300
H           7.25843500     14.48946400      9.70724300
O           7.00576100     14.25009800     12.84659200
H           6.32311300     14.89572900     12.98814400
H           6.92682500     13.99392400     11.90469900
          26
 Energy =    -1099.68600950 a.u.  Frame:     8 Step:     8 Geom:     8
C          10.15781600     11.51218100     11.69708400
C           9.78574400     11.96514900     10.42914100
C           9.32837800     13.58455800     11.84756700
N           9.86439100     12.54396100     12.58556800
H           9.98674500     12.52154800     13.60242800
H          10.58083200     10.58170600     12.01056400
H           9.84823900     11.47125300      9.47978600
H           8.99947500     14.53070500     12.25718000
N           9.27536600     13.24944400     10.53712500
P           9.73264000     14.75314700     15.47852100
O          10.28829100     13.43904200     15.13711900
O           8.16312500     14.87067300     15.67411200
H           7.69608100     14.57859300     14.79113800
O          10.28769600     15.27551300     16.86743200
H           9.84768500     16.19632000     17.04760200
O          10.02369600     15.91881100     14.43160400
H          10.73231800     15.61654800     13.74671900
O          11.74501500     14.92527900     12.25839000
H          12.00780400     14.03310800     12.49592500
H          11.40238200     14.86044300     11.36275200
O           6.77702400     14.31779600     10.42409000
H           7.54189500     13.80889000     10.06357300
H           6.92591200     15.21324600     10.13500300
O           6.81115200     13.90587800     13.20020100
H           6.32169600     13.09648800     13.30155800
H           6.76861200     14.10974100     12.24783000
          26
 Energy =    -1099.68756310 a.u.  Frame:     9 Step:     9 Geom:     9
C          10.65104100     12.10204600     11.34420300
C           9.84093000     12.35699800     10.23607800
C           9.34905900     13.87845900     11.74868900
N          10.33947300     13.07440800     12.29296500
H          10.68704300     13.10677900     13.25747300
H          11.38467400     11.34330100     11.51460000
H           9.78199500     11.84330400      9.29685800
H           8.89250800     14.71955000     12.25389400
N           9.04209300     13.45849300     10.50186800
P           9.72188500     14.59025900     15.53452700
O          10.70677600     13.65227100     14.98016000
O           8.24534700     14.07794800     15.78401700
H           7.85336800     13.74781000     14.87274300
O          10.16014600     15.10044200     16.96929100
H           9.40550400     15.71591400     17.32248800
O           9.48028900     15.89739900     14.65327200
H          10.25765600     16.01285800     13.98501300
O          11.58724700     15.89016600     12.62794000
H          12.33604900     15.49150200     13.07861400
H          11.42575700     15.33446900     11.86109200
O           6.39393500     13.88235700     10.71435900
H           7.21328000     13.63428900     10.21876100
H           6.32352900     14.82585700     10.60428700
O           7.21746600     13.04333700     13.23936700
H           7.50038400     12.15971100     13.02576700
H           6.83257400     13.39009100     12.41168700
          26
 Energy =    -1099.68905300 a.u.  Frame:    10 Step:    10 Geom:    10
C          10.93308600     11.97545600     11.14043900
C          11.56746700     12.84608900     10.25072500
C           9.66941000     13.79681300     10.82251400
N           9.72718900     12.57780300     11.48382900
H           9.10912200     12.29141800     12.23966200
H          11.23552400     11.02588300     11.52667100
H          12.49994000     12.73820000      9.73517300
H           8.84791000     14.48915800     10.91187500
N          10.77722600     13.97279700     10.07063400
P           9.38219200     14.18937600     14.57424300
O           8.56244800     13.47408000     13.57958100
O           8.70885000     14.47957600     15.97426300
H           7.79570700     14.98602700     15.80833000
O          10.65429800     13.30444000     14.93526200
H          11.08873200     13.69216200     15.78516900
O           9.88338300     15.62069400     14.13580100
H          10.55524300     15.54133300     13.33283600
O          11.76968100     15.55471200     12.03422300
H          11.40271900     15.64250900     11.13311600
H          12.19119300     14.69032400     12.01673400
O           5.61061800     13.78006100     13.60702800
H           5.33099200     12.98131200     14.05465000
H           6.55975600     13.64769500     13.45124600
O           6.23543900     15.72503700     15.48183000
H           6.36803100     16.52386800     14.97021100
H           5.86385700     15.08319200     14.84397300
          26
 Energy =    -1099.68685910 a.u.  Frame:    11 Step:    11 Geom:    11
C          11.17642900     12.03926300     11.52267200
C          11.69328400     12.89213500     10.54430100
C           9.59803200     13.47953100     10.85517200
N           9.84607800     12.40470200     11.69849200
H           9.24492900     12.11397900     12.46893600
H          11.63432400     11.24680700     12.07558800
H          12.66878600     12.91654700     10.10354700
H           8.65007900     13.98475400     10.79183800
N          10.70641300     13.78400500     10.14684100
P           9.36325800     14.29572100     14.49527300
O           8.54762700     13.37829000     13.68032300
O           8.89800500     14.55239800     15.98234500
H           7.87186400     14.80509000     15.97879200
O          10.83122700     13.69548900     14.65245600
H          11.27941100     14.13823200     15.46621600
O           9.49586500     15.75759500     13.91255500
H          10.14469800     15.75728200     13.08550000
O          11.30179600     15.87388400     11.74127800
H          11.93761000     15.16469400     11.87640400
H          10.92721100     15.66751700     10.86054400
O           5.59502100     13.79857800     13.63609500
H           5.56138400     14.32105100     12.83587700
H           6.50163600     13.45136000     13.65552200
O           6.17735400     15.25579900     15.95029600
H           6.09368200     16.15678900     15.64113300
H           5.82401100     14.70852400     15.22201800
          26
 Energy =    -1099.69329220 a.u.  Frame:    12 Step:    12 Geom:    12
C          10.13283000     12.86079100     10.42584100
C          11.37866700     13.31452900      9.98293000
C          11.57917700     12.91187400     12.13441300
N          10.27301800     12.59647400     11.78408200
H           9.51028500     12.39848900     12.43152500
H           9.21534500     12.70921300      9.89895200
H          11.69487300     13.59576800      8.99867200
H          11.97819500     12.80804300     13.13113600
N          12.25917600     13.35070300     11.05371900
P           9.11110300     14.41286800     14.56369000
O           8.54323300     13.51534200     13.54135800
O           8.24594400     14.67715800     15.85799600
H           7.28364400     14.99827600     15.55584400
O          10.44712800     13.75442800     15.12826600
H          10.74311800     14.27355800     15.96513500
O           9.47274100     15.87466200     14.09134600
H          10.09344700     15.83060800     13.24677000
O          11.16055700     15.88857100     11.80700000
H          12.00203300     15.40557100     11.85488000
H          10.70016400     15.47676700     11.06969200
O           5.58628800     13.19413000     13.34910900
H           5.45107000     12.40485000     13.87447700
H           6.55026000     13.25166900     13.24827000
O           5.66392300     15.39781500     15.02587100
H           5.68983700     16.15229600     14.43640900
H           5.47395900     14.63557100     14.44263600
          26
 Energy =    -1099.68616860 a.u.  Frame:    13 Step:    13 Geom:    13
C          11.22264600     11.97652300     11.45143700
C          11.32675800     12.81485300     10.33998100
C           9.30515800     13.09844300     11.16102300
N           9.93710400     12.15082300     11.95486400
H           9.61162900     11.81563100     12.85723700
H          11.92941600     11.30759300     11.89543100
H          12.14140200     12.95225700      9.65850900
H           8.29144100     13.43772600     11.31467400
N          10.13552500     13.51051800     10.17914300
P           9.53958200     14.20329300     14.80840100
O           9.58629500     12.78677800     14.45480100
O           8.54433000     14.64541400     15.95560000
H           7.56030100     14.45345800     15.63283000
O          10.95345500     14.72357900     15.30588000
H          10.82063800     15.65124000     15.73970300
O           9.07100500     15.15912100     13.61826500
H           9.81281000     15.31618900     12.90845600
O          10.85898000     15.69057400     11.56806600
H          11.61727400     15.10834500     11.66311700
H          10.42980900     15.37740100     10.74074700
O           6.46746000     14.88608900     12.35479800
H           7.36662500     15.04238700     12.68036100
H           6.15900400     15.74296200     12.06306000
O           5.90638900     14.10400800     15.01087100
H           5.80345700     13.15314200     14.96101500
H           5.96152000     14.39166700     14.08175000
