%chk=MImBA.chk
%mem=200GB
%nprocshared=22
#p opt freq b3lyp/6-311g(d,p) em=gd3bj

Title Card Required

0 1
 C                 -1.15826988   -1.51081026    0.11399717
 C                  0.24335908   -1.50443337    0.13127889
 C                 -0.49871900    0.65360350    0.06132729
 N                 -1.60350629   -0.19283690    0.07142963
 H                 -1.85629809   -2.34689525    0.12887891
 H                  0.89134239   -2.37385437    0.16379169
 H                 -0.61218272    1.73643762    0.02935804
 C                 -3.00962398    0.23476345    0.04158057
 H                 -3.10164671    1.19116998    0.51245038
 H                 -3.33992565    0.30386524   -0.97381382
 H                 -3.61079981   -0.47949851    0.56437831
 N                  0.66156171   -0.13226282    0.09795464
 C                  2.04777172    0.35692996    0.10145170
 H                  2.37796510    0.48581902    1.11103574
 H                  2.09648395    1.29433352   -0.41216459
 C                  2.95465034   -0.66524667   -0.60870752
 H                  3.48887299   -1.23613209    0.12176904
 H                  2.35470540   -1.32079201   -1.20471622
 C                  3.95611949    0.07772043   -1.51239963
 H                  4.94442382   -0.28687450   -1.32471615
 H                  3.91674964    1.12607742   -1.30192960
 C                  3.59183203   -0.16341886   -2.98913471
 O                  2.78758317    0.65657515   -3.60083338
 O                  4.08931453   -1.18647622   -3.62099427

 1 2 2.0 4 1.0 5 1.0
 2 6 1.0 12 1.0
 3 4 1.0 7 1.0 12 2.0
 4 8 1.0
 5
 6
 7
 8 9 1.0 10 1.0 11 1.0
 9
 10
 11
 12 13 1.0
 13 14 1.0 15 1.0 16 1.0
 14
 15
 16 17 1.0 18 1.0 19 1.0
 17
 18
 19 20 1.0 21 1.0 22 1.0
 20
 21
 22 23 1.5 24 1.5
 23
 24

