%nproc=24
%mem=50GB
#p M062X/6-311+G(2d,p) nosymm em=GD3 counterpoise=2

Title Card Required

0 1  
C          15.96453300     18.26260200      4.98154300            1
H          16.65054800     17.40991100      4.87832300            1
H          16.53630200     19.19626600      4.89509900            1
H          15.55062600     18.21850600      6.02536600            1
C          15.42942800     18.21449400      2.59491600            1
H          16.09329400     17.34957000      2.43171400            1
H          14.63090800     18.17160700      1.83161300            1
H          16.01180700     19.13296600      2.41841000            1
C          14.09814400     16.91404000      4.18010000            1
H          13.56910800     16.90121800      5.16700800            1
H          13.28993000     16.77874800      3.43447700            1
H          14.76595800     16.04473400      4.14911600            1
C          13.96134900     19.42090200      4.17612500            1
H          14.57586700     20.32811700      4.00858500            1
H          13.65988600     19.45254400      5.26214000            1
C          12.70888300     19.44444900      3.28687500            1
H          12.61997900     18.52881500      2.66645700            1
H          12.76617600     20.28744500      2.57353500            1
C          11.44101300     19.56269800      4.13436000            1
H          10.53421900     19.53024900      3.51010000            1
H          11.40543900     20.50282900      4.70502400            1
N          14.84554400     18.19774900      3.97943700            1
C          11.41215200     18.35093100      5.10840000            1
O          11.24832200     17.24042900      4.60737100            1
O          11.65643200     18.62409900      6.30411200            1
O          13.99621200     18.00741200      7.25228400            2
H          13.86075500     17.79807300      8.16494500            2
H          13.05720900     18.20862500      6.91256700            2



