%nproc=8
%mem=5GB
#p M062X/6-311+G(2d,p) nosymm em=GD3 counterpoise=3

Title Card Required

0 1    
C          16.96728700      6.21614600      4.12488100         1
H          17.39438600      5.53484200      3.37215500         1
H          16.05591900      5.76855600      4.54311000         1
H          16.66432400      7.13840000      3.56576700         1
C          18.21796600      5.31820800      6.02180100         1
H          18.63953200      4.50874600      5.40206800         1
H          18.93999400      5.52978700      6.83307900         1
H          17.29043700      4.94886100      6.48743900         1
C          19.25831300      6.99453600      4.57105600         1
H          19.33494500      8.10794500      4.54002400         1
H          20.14265800      6.65034300      5.13195700         1
H          19.34520000      6.66788000      3.52058600         1
C          17.35841400      7.63750500      6.07350900         1
H          16.41591100      7.25599400      6.51702000         1
H          17.05273700      8.47890500      5.39077800         1
C          18.30211600      8.14461900      7.17036300         1
H          19.36749000      7.92039300      6.93498400         1
H          18.10199400      7.62700600      8.12665200         1
C          18.16400700      9.65619400      7.36625000         1
H          18.94581100     10.03244100      8.05089400         1
H          17.19224300      9.91817900      7.82125800         1
N          17.96685500      6.54983800      5.19893600         1
C          18.30579300     10.37411200      6.01368300         1
O          17.28613200     10.89414400      5.54380600         1
O          19.42776200     10.32748400      5.45556700         1
P          18.00848500      9.93725500      2.28717400         2
O          17.85377200      8.50126000      2.56293200         2
O          19.39456200     10.56289100      2.73595700         2
H          19.43888800     10.55215200      3.80387200         2
O          17.96533500     10.19414000      0.71448900         2
H          18.08432800     11.21166000      0.57191100         2
O          16.87005300     10.87840900      2.85606600         2
H          17.01281800     10.97246800      3.91293900         2
O          21.30685200      8.53034700      6.11264700         3
H          20.63508200      9.23259500      5.90028700         3
H          22.14163300      8.97577300      6.04410700         3



