%nproc=24
%mem=50GB
#p M062X/6-311+G(2d,p) nosymm em=GD3 counterpoise=3

Title Card Required

0 1
P           9.54793900     16.89918100      8.24961600        1
O           9.60769800     16.01978600      9.42286000        1
O           8.09883000     17.38428100      7.81141400        1
H           7.46870000     17.40693700      8.65348200        1
O          10.39018600     18.22559300      8.50029100        1
H          10.37002600     18.78139500      7.63218200        1
O          10.14559400     16.37055400      6.87946600        1
H           9.67948000     15.45715700      6.64838800        1
O           8.82985900     13.88779800      6.34496000        2
H           8.83685300     13.48119100      7.23299700        2
H           7.90812000     14.06743800      6.16819900        2
O           8.70397000     13.15834400      9.05053800        3
H           7.81421100     13.22979700      9.40207600        3
H           9.12939300     13.99576900      9.29234600        3

