          45
 Energy =     -0.79094300 a.u.  #Cluster:    1
C           5.55967500      8.98629300     19.03395100
C           5.71958100     10.35002000     19.24381000
C           5.39440600     10.01197100     17.03871700
N           5.35816800      8.80097900     17.66526500
H           5.59401700      8.17009800     19.73050700
H           5.90513100     10.89071400     20.14993700
H           5.28062200     10.19715900     15.95674700
C           5.13448100      7.52505500     17.01085600
H           5.90275300      6.78559600     17.31801300
H           4.12291200      7.13930500     17.23563600
H           5.19546000      7.62918000     15.90187300
N           5.59594500     10.97420900     17.99883900
C           5.85142200     12.38937800     17.72991800
H           5.28990700     12.99769600     18.47454000
H           5.43256600     12.64757500     16.72098600
C           7.36069000     12.71799900     17.79127700
H           7.49378900     13.68628200     18.31543900
H           7.88496000     11.96751900     18.42627400
C           8.02730200     12.79413400     16.42245000
H           9.09533900     13.06009900     16.53232700
H           7.58651700     13.60122600     15.80952900
S           7.90677800     11.24087500     15.50476000
O           6.57556400     11.33001600     14.84173000
O           9.07008800     11.18485100     14.61309000
O           7.85478700     10.18852300     16.55986600
P           7.75761300      6.71606500     13.71398600
O           6.99023600      7.66286100     12.91137200
O           7.12503100      6.34275400     15.12429900
H           7.63885400      6.82791300     15.89765100
O           7.82576600      5.30203600     12.98826700
H           8.36196200      4.65890400     13.58364200
O           9.25996900      7.05299300     14.08893400
H           9.58788600      7.92281200     13.58434800
O          10.13214500      9.34997900     12.89084100
H           9.85805200     10.03096800     13.55591400
H           9.56205700      9.53300900     12.14295300
O           4.79383000      9.66466200     13.57987900
H           5.41418600     10.36376100     13.89120100
H           5.38412100      8.96519400     13.28148300
O           3.18688900      9.04256100     15.66352000
H           3.73915700      9.22405000     14.86359500
H           2.29132000      9.10751200     15.35317200
O           8.26626700      7.63779600     17.28839700
H           9.21071800      7.56056700     17.15167100
H           8.08108900      8.58687300     17.04857000
          45
 Energy =     -0.79065100 a.u.  #Cluster:    2
C           6.33665100      8.29268100     18.03602600
C           6.70958500      9.50965500     18.59363400
C           4.99375100      9.88046200     17.17711400
N           5.26718100      8.54415300     17.17505000
H           6.77128600      7.31313800     18.16217000
H           7.52893600      9.73768100     19.25089700
H           4.24573700     10.38596100     16.56111700
C           4.58097300      7.55577600     16.36343100
H           4.72378800      7.77788200     15.27829300
H           4.98331100      6.54041200     16.54245400
H           3.49298300      7.56058800     16.56429100
N           5.84964400     10.48082200     18.07360300
C           5.91143200     11.92441200     18.30701500
H           5.56489000     12.12087900     19.34969200
H           5.18969400     12.42834000     17.61650100
C           7.31812000     12.52667100     18.10645500
H           7.35677100     13.49390000     18.65131500
H           8.08480500     11.88766600     18.60053800
C           7.68880900     12.76195400     16.64634200
H           8.64977600     13.30418800     16.57630100
H           6.94831200     13.40365600     16.13917300
S           7.83705800     11.20195900     15.74331000
O           6.41426800     10.83932300     15.47480900
O           8.62790800     11.45556100     14.52924300
O           8.47695900     10.29524800     16.72813800
P           7.69605300      6.73374900     14.15847700
O           6.66758000      7.32553600     13.30694100
O           7.28404700      6.69566400     15.69132200
H           8.03714100      7.10325000     16.29951500
O           7.90616200      5.20092900     13.78310900
H           8.68772000      4.83251000     14.33619200
O           9.16586100      7.32306600     14.17881500
H           9.23961100      8.18494700     13.56572600
O           9.42948300      9.60242500     12.69999100
H           8.68896500      9.68477600     12.09895700
H           9.26576000     10.32057900     13.36509400
O           4.83203200      9.75556000     13.59495700
H           5.43925200     10.24960600     14.20564300
H           5.33561400      8.96484800     13.38816800
O           2.78765900      9.52810200     15.29900200
H           3.51729800      9.57388400     14.62564500
H           2.02242800      9.86051300     14.84612500
O           9.10094700      7.80196900     17.42230200
H           9.96241700      7.69733100     17.01687800
H           8.86134900      8.74780800     17.20026900
          45
 Energy =     -0.78986300 a.u.  #Cluster:    3
C           6.24970600      8.35217900     18.74870800
C           6.55347500      9.61782000     19.23008600
C           5.26835200      9.85811400     17.39062600
N           5.45075000      8.52323400     17.61651900
H           6.57327900      7.38311500     19.08966300
H           7.15812000      9.90925100     20.06546900
H           4.69967200     10.30582100     16.56382200
C           4.94138300      7.45492800     16.77563700
H           4.98751000      7.74480600     15.69813900
H           5.54767500      6.53582600     16.89658000
H           3.88162400      7.23733900     17.00904300
N           5.93443100     10.54097600     18.37927400
C           6.13338300     11.99052800     18.40922300
H           5.70911600     12.38278900     19.36235900
H           5.54987500     12.45047400     17.57065500
C           7.62372300     12.37893300     18.28949800
H           7.78880100     13.31324500     18.86563000
H           8.26275400     11.61446200     18.78743000
C           8.09187900     12.58830500     16.85475400
H           9.13440600     12.95667200     16.84264200
H           7.49798400     13.36931900     16.34763500
S           8.00992900     11.07159400     15.87297500
O           6.54559600     10.90621900     15.63795600
O           8.81483300     11.31528800     14.66767400
O           8.53448600     10.00726800     16.76635000
P           7.45649800      6.83197600     13.47746400
O           6.53559900      7.72172500     12.78083500
O           6.95482100      6.35699100     14.91123700
H           7.51294800      6.78932800     15.67648500
O           7.60172900      5.45392900     12.69488400
H           8.24716000      4.85037200     13.21683400
O           8.94700600      7.28470000     13.76336300
H           9.16912200      8.19424200     13.27325200
O           9.77967400      9.66873400     12.73472500
H          10.68864000      9.73516100     13.01918100
H           9.31649600     10.31841600     13.32509600
O           4.69687100      9.85724300     13.93762200
H           5.39849000     10.33034300     14.44446200
H           5.18297500      9.16788600     13.47507100
O           2.94335400      9.22966300     15.85177600
H           3.54892300      9.40142500     15.08450200
H           2.07758300      9.44511600     15.52683800
O           8.20170000      7.39269500     17.17638400
H           9.11039900      7.10866000     17.09568400
H           8.26728400      8.38290600     17.02599800
          45
 Energy =     -0.78941400 a.u.  #Cluster:    4
C           4.69175100      8.52560700     18.77774100
C           4.83808800      9.90423800     18.88266700
C           5.56696200      9.28516900     16.84449400
N           5.13982700      8.16380200     17.50796400
H           4.32156800      7.81655900     19.49153400
H           4.60220000     10.56044500     19.69661200
H           5.98646000      9.30592000     15.83054400
C           5.18417800      6.81456600     16.97523500
H           4.55427100      6.12842700     17.56174900
H           4.84235700      6.79483400     15.91713100
H           6.22973700      6.42483400     16.98296500
N           5.37610600     10.35450300     17.67732900
C           5.69339700     11.74718500     17.36404500
H           4.82490700     12.38107400     17.65538900
H           5.77981600     11.86333700     16.24919200
C           6.98357100     12.20287200     18.08106600
H           6.79700300     13.18000600     18.57049400
H           7.22194000     11.50048700     18.91157700
C           8.18752900     12.32907600     17.15273900
H           9.08200800     12.63473100     17.72619400
H           8.02736200     13.13110400     16.40811800
S           8.54726700     10.79237100     16.27702200
O           7.74190900     10.91005200     15.01967300
O           9.98233500     10.70446800     16.02300700
O           7.98568500      9.72771700     17.16373600
P           7.75117900      6.84102100     13.76643900
O           6.54438400      7.48894900     14.29068000
O           8.95083900      6.59403000     14.77248000
H           8.66010900      6.77987800     15.75815200
O           7.38041900      5.38782500     13.22510700
H           8.22690200      4.97927600     12.80723600
O           8.46365000      7.48727900     12.51574700
H           8.88231700      8.42713900     12.79301500
O           9.50288500      9.97120500     13.09315300
H           8.74526700     10.41981700     13.53176400
H          10.16083100      9.96942000     13.80639600
O           5.49446800     10.26999800     13.59715700
H           6.32895700     10.62703900     13.98174700
H           5.69870000      9.33166600     13.49419200
O           3.73552700     10.60561100     15.57795800
H           4.34463500     10.51391100     14.80200700
H           2.87205200     10.70876600     15.19742700
O           8.47136900      7.13680800     17.46520100
H           9.35615100      7.15010800     17.81882200
H           8.24113900      8.10688800     17.37713100
          45
 Energy =     -0.78810800 a.u.  #Cluster:    5
C           6.41933600      8.04668900     17.94934400
C           6.79066200      9.22551900     18.58571000
C           4.98539600      9.65511700     17.30456400
N           5.29520200      8.33288200     17.17407200
H           6.88839600      7.07493900     17.96790000
H           7.64104800      9.42465100     19.21244400
H           4.19638700     10.18757100     16.77536700
C           4.58729700      7.39122500     16.32671100
H           5.03339000      6.38024700     16.38953500
H           3.51583500      7.33599300     16.59804100
H           4.64778300      7.70771100     15.25718300
N           5.87567100     10.20737900     18.19880800
C           5.90812500     11.62768600     18.55193200
H           5.61758000     11.72320100     19.62539800
H           5.13289400     12.16314200     17.94845500
C           7.28218100     12.29300800     18.32585400
H           7.32598400     13.20894900     18.95276900
H           8.09560500     11.63935000     18.71471200
C           7.55641800     12.66901600     16.87388900
H           8.49925900     13.24104000     16.79621300
H           6.77226100     13.33337500     16.47257000
S           7.68141900     11.19981700     15.82623100
O           6.25260500     10.82373200     15.61554100
O           8.39034800     11.58009200     14.59502900
O           8.40093800     10.22832300     16.68692500
P           7.59027000      6.88185700     13.87369000
O           6.50338600      7.51023700     13.12766500
O           7.26276200      6.70932700     15.41779600
H           8.03965000      7.08271700     16.01696600
O           7.81792900      5.39049200     13.36498200
H           8.64087500      5.00424100     13.84025300
O           9.04413900      7.50989300     13.86469500
H           9.06024800      8.42422200     13.32792500
O           9.15771400      9.91588100     12.57921500
H           8.38477200     10.01953300     12.02392800
H           9.00392200     10.56938800     13.30995600
O           4.58071800      9.80145200     13.76400000
H           5.19617700     10.27378800     14.37965400
H           5.11618700      9.07295600     13.44234700
O           2.52059400      9.18720300     15.38016700
H           3.25815200      9.39496300     14.75492500
H           1.73316100      9.43948300     14.91368100
O           9.14998100      7.71432200     17.13837800
H           9.98855600      7.67180500     16.67754500
H           8.86879900      8.66560400     17.00707000
          45
 Energy =     -0.78750100 a.u.  #Cluster:    6
C           6.21791700      8.25432600     17.99015300
C           6.52341200      9.45973600     18.61034800
C           4.89523100      9.83905300     17.09434900
N           5.19909700      8.51114100     17.07061800
H           6.67755500      7.28540000     18.09243800
H           7.28954700      9.68688300     19.32851700
H           4.17706300     10.34882500     16.44793500
C           4.57686700      7.52691900     16.20529500
H           3.48450600      7.48128400     16.37178800
H           4.73897600      7.79178700     15.13272100
H           5.01839800      6.52371000     16.36295300
N           5.67880700     10.43016200     18.06235900
C           5.72360300     11.87234800     18.31056100
H           5.29764800     12.06232800     19.32433700
H           5.05819900     12.38249700     17.56961000
C           7.14322700     12.47442800     18.22463600
H           7.13703600     13.44179200     18.77037000
H           7.86527400     11.83385500     18.77985100
C           7.63750100     12.70958900     16.80050600
H           8.62184800     13.21217000     16.81312200
H           6.96428100     13.38745800     16.24743500
S           7.78405800     11.15198000     15.89693200
O           6.38454000     10.89927100     15.45698200
O           8.76198500     11.32269700     14.80558200
O           8.24041200     10.18589000     16.93177200
P           7.69431800      6.45575700     14.24323000
O           6.65294200      7.19396800     13.53845700
O           7.64516100      6.62182700     15.81973300
H           8.51385400      7.10083500     16.18930400
O           7.48916700      4.88956200     14.03118100
H           8.27606500      4.39981400     14.47707500
O           9.20827700      6.63866200     13.79848200
H           9.49482100      7.63710200     13.84738900
O          10.31896800      9.22260000     14.06973400
H          10.76223800      9.50847500     13.27979400
H           9.74784800      9.99624400     14.32595100
O           4.93757100      9.75625100     13.49045300
H           5.50086000     10.27701700     14.11826800
H           5.45877800      8.96362800     13.34392400
O           2.81001600      9.48987900     15.09055100
H           3.57181200      9.55849600     14.45623800
H           2.06244500      9.81399400     14.60334200
O           9.77746500      7.99990100     16.76971200
H          10.24776900      8.28658300     15.97511600
H           9.23264700      8.80389800     16.98093700
          45
 Energy =     -0.78743600 a.u.  #Cluster:    7
C           5.33512700      8.78413800     19.05795000
C           5.31119000     10.17187500     19.06546700
C           5.54872300      9.49891500     16.92638200
N           5.47584200      8.38649300     17.72741100
H           5.26952100      8.08865700     19.87100900
H           5.21179200     10.85412100     19.88580400
H           5.65472100      9.48834400     15.83121600
C           5.63131500      7.01723900     17.27298100
H           5.12697300      6.86575600     16.29304100
H           6.71326700      6.77696900     17.13223400
H           5.20764600      6.30132200     17.99407400
N           5.44097200     10.59532600     17.74024000
C           5.56351100     11.99338700     17.32897000
H           4.74343500     12.57613500     17.80632100
H           5.37510600     12.07472500     16.22398900
C           6.94848700     12.55992200     17.72136200
H           6.80554300     13.54683800     18.20606200
H           7.40936800     11.91348200     18.50234400
C           7.92032300     12.71442000     16.55528600
H           8.91146200     13.03659600     16.92367600
H           7.58526300     13.51458900     15.86891800
S           8.10739600     11.18951500     15.60838400
O           7.02494200     11.27958100     14.61043800
O           9.48451700     11.14532700     15.06956800
O           7.85235800     10.08897400     16.59052300
P           7.21204600      6.85256800     13.67442000
O           6.08733600      7.68146600     14.10383300
O           7.92602400      6.02961000     14.82772200
H           8.33494800      6.67666700     15.55287800
O           6.69660400      5.70370000     12.69998600
H           7.51645200      5.15601500     12.39808200
O           8.34695600      7.53786800     12.80462600
H           9.05469200      7.99439100     13.41526400
O          10.44127500      8.74787900     14.37743900
H          10.12268700      9.66812500     14.61439100
H          11.26346000      8.88717800     13.92633000
O           4.72738400     10.30591000     13.54539800
H           5.56795100     10.78161400     13.75689200
H           5.03700600      9.39878500     13.43752000
O           3.43520600     10.55700200     15.86749800
H           3.87565400     10.49251700     14.97826100
H           2.50643500     10.56608000     15.67496400
O           9.06841700      7.67285300     16.68567400
H           9.79589200      7.92560400     16.09682400
H           8.57478400      8.53154300     16.76838400
          45
 Energy =     -0.78604900 a.u.  #Cluster:    8
C           5.43642800      9.05150500     19.15063700
C           5.51385300     10.43206000     19.26780900
C           5.52677500      9.91421300     17.07145400
N           5.44534300      8.75370500     17.78610100
H           5.38458800      8.29548000     19.90994200
H           5.53745800     11.04947000     20.14321300
H           5.54738300     10.00249200     15.97236600
C           5.43413500      7.41979600     17.21476200
H           5.11528800      7.44823400     16.14495700
H           6.45694300      6.97962100     17.25092100
H           4.73341100      6.75893000     17.74897500
N           5.55439300     10.95467300     17.97042500
C           5.81724000     12.35668900     17.64357000
H           5.17349100     12.99649000     18.28847900
H           5.49643100     12.55311800     16.58587800
C           7.30931700     12.71160400     17.84820500
H           7.37523300     13.68575300     18.37382900
H           7.77865100     11.97448600     18.53972300
C           8.11606100     12.78699100     16.55563200
H           9.17244200     13.02555900     16.77829800
H           7.75737900     13.61179400     15.91264300
S           8.04363200     11.24705200     15.61687200
O           6.77624200     11.37636300     14.85844400
O           9.28808100     11.13205100     14.83774100
O           7.89909100     10.17319600     16.65002500
P           7.39323700      6.80914300     13.36945900
O           6.76877000      7.95714900     12.72844900
O           7.05427600      6.61085700     14.90834400
H           7.81478400      6.98343700     15.52875500
O           6.86486700      5.45042100     12.72906100
H           7.35083100      4.66990800     13.19223800
O           8.96854200      6.63165900     13.24187700
H           9.46285700      7.47650000     13.58693300
O          10.49421600      8.74646200     14.37817100
H          10.04215300      9.62364300     14.51066700
H          11.28091800      8.95666500     13.89007400
O           4.73284500     10.01280000     13.61203300
H           5.42987500     10.62625300     13.93731400
H           5.25354000      9.30419000     13.21560500
O           3.33077000      9.11259100     15.73838100
H           3.80729600      9.42032100     14.92733100
H           2.43769600      8.96935200     15.45005200
O           8.88981700      7.67063400     16.62594300
H           9.64072800      7.86162400     16.04724100
H           8.50270500      8.57508400     16.76120200
          45
 Energy =     -0.78492600 a.u.  #Cluster:    9
C           5.94189400      8.30093200     17.92292000
C           6.26538000      9.46998500     18.60200400
C           4.81000200      9.98837600     16.95795700
N           5.03019600      8.64399400     16.92353000
H           6.32832600      7.30194300     18.03923800
H           6.97580700      9.62983100     19.39205700
H           4.19548800     10.56054800     16.26513300
C           4.42534100      7.72109500     15.98206200
H           4.79076700      6.68876100     16.14673200
H           3.32168800      7.73799400     16.05547100
H           4.69312600      7.99880600     14.93392100
N           5.53784700     10.50532100     18.00869900
C           5.65007900     11.93574900     18.30110800
H           5.14758000     12.12925500     19.27848300
H           5.08736700     12.50509700     17.51912700
C           7.10659700     12.44656500     18.35776900
H           7.11271900     13.39707700     18.93237000
H           7.73572500     11.74562000     18.95158900
C           7.73783900     12.68764800     16.98975300
H           8.74980500     13.11721200     17.10325000
H           7.16385100     13.42812400     16.40598200
S           7.85323600     11.14963700     16.04823600
O           6.48197000     11.01209700     15.48573400
O           8.93317400     11.27796700     15.05197200
O           8.14756200     10.12526100     17.08631200
P           7.63353400      6.51147200     14.26346600
O           6.71924000      7.33728700     13.48394300
O           7.44250100      6.64370600     15.83260600
H           8.30099600      7.05386500     16.29645400
O           7.34567500      4.96857100     13.98689500
H           8.04676300      4.41506100     14.49669100
O           9.19290100      6.59875700     13.97335000
H           9.53755500      7.57487900     14.07194900
O          10.43119800      9.09948800     14.41562900
H           9.88244400      9.89931000     14.63639900
H          10.96183100      9.37517900     13.67733000
O           5.12508600      9.97475200     13.38807500
H           5.64995700     10.45491400     14.07543200
H           5.63492300      9.17360900     13.25048400
O           2.74428600      9.62737100     14.59847200
H           3.60258000      9.74475800     14.12137400
H           2.08447700      9.90897900     13.97649500
O           9.56020000      7.85352600     17.01914800
H          10.12283500      8.12264700     16.28047700
H           9.04766200      8.68699400     17.19396300
          45
 Energy =     -0.77712800 a.u.  #Cluster:   10
C           5.25902400      8.20271900     18.84961500
C           5.35335000      9.57149200     19.07110500
C           5.18092600      9.23718600     16.83837600
N           5.14646600      8.01209600     17.46205100
H           5.27512800      7.39047700     19.55815100
H           5.45694500     10.10659600     19.99999800
H           5.13296100      9.41058700     15.71096300
C           5.02685100      6.71545700     16.79237100
H           4.84421200      6.84907900     15.69795600
H           5.99039500      6.14809400     16.86692300
H           4.21354900      6.11001300     17.21934300
N           5.29311800     10.20538200     17.81672800
C           5.41814500     11.65954100     17.58944000
H           4.65743700     12.18388600     18.20987400
H           5.12831900     11.89027200     16.50617600
C           6.82995600     12.17929800     17.91029500
H           6.73202300     13.12080400     18.49284400
H           7.36378600     11.46998000     18.58483000
C           7.68354300     12.45309600     16.67816800
H           8.58236100     13.04007200     16.96652400
H           7.14382800     13.13579200     15.98208400
S           8.15217400     10.97032400     15.84972600
O           7.18186500     10.80275000     14.69578800
O           9.50165600     11.12094900     15.25812800
O           8.06137300      9.84787300     16.81908100
P           7.52904400      7.04921600     14.32614600
O           6.20360900      7.70807400     14.15248400
O           7.77904000      6.39196500     15.77604900
H           8.65535700      6.85353800     16.35754700
O           7.68022500      5.79172500     13.27278300
H           8.50459700      5.25128200     13.34020300
O           8.85822800      7.92333500     14.16089800
H           8.86994400      8.85203000     13.44162400
O           8.97515700     10.10050000     12.94128300
H           8.08030000     10.49283400     13.20675400
H           9.61736400     10.51915900     13.61472800
O           4.86873000      9.70644000     14.05311000
H           5.87262700      9.69749300     14.00971800
H           4.63095200      8.84593200     13.66193100
O           4.80901500     12.10559300     14.72814900
H           4.14802700     11.50499300     14.35293600
H           5.66767600     11.76528000     14.37488200
O           9.67484900      7.77143400     16.71756300
H           9.96623300      8.08002200     15.82009100
H           9.11964800      8.55536200     17.05461700
          45
 Energy =     -0.77550500 a.u.  #Cluster:   11
C           6.04414400      7.95138300     17.66222000
C           6.53553500      9.22368800     17.94373900
C           4.74290600      9.44875500     16.58356500
N           4.92999000      8.10814300     16.82883800
H           6.44692200      6.98469200     17.94562200
H           7.42719400      9.50266300     18.50412300
H           3.96302000      9.87380900     15.92516200
C           4.15750900      7.03423400     16.19810200
H           3.11295900      7.36161200     15.99558700
H           4.61137700      6.78272200     15.20558200
H           4.14840400      6.12510500     16.81845000
N           5.72237100     10.14600800     17.27286300
C           5.81527200     11.62591200     17.25431800
H           4.96608300     12.02905600     17.85642500
H           5.64414100     11.96278900     16.18858200
C           7.14156000     12.18843200     17.78321300
H           6.91312700     13.10967800     18.36452300
H           7.60532100     11.49751100     18.52698100
C           8.14216600     12.53629800     16.68941800
H           8.79985800     13.36423200     17.03495300
H           7.62581300     12.97375300     15.80783300
S           9.13600900     11.15639600     16.19449600
O           8.42493600     10.61162800     14.93846300
O          10.47826800     11.61475000     15.92211900
O           9.02840700     10.11248500     17.26347900
P           7.65618000      7.25451200     14.62942100
O           6.31296100      7.80210500     14.29738700
O           7.84006900      6.69999200     16.12294600
H           8.81592700      7.04745400     16.64582300
O           8.01451900      5.99240500     13.63632600
H           8.93292100      5.63004800     13.68208600
O           8.96182900      8.19940000     14.49819600
H           8.79441600      9.30290600     14.41178500
O           5.88526900     11.12245800     14.32490900
H           5.92287200     11.48332800     13.44093400
H           6.80608700     10.75846900     14.50158500
O           4.59768200      9.08050000     13.10856300
H           5.21388000      9.51161300     13.76426200
H           5.00438400      8.20046200     12.96787500
O           2.62572700      9.07371300     14.76722900
H           3.28627100      8.92512300     13.99905100
H           1.89350200      9.53736000     14.38679900
O          10.01152500      7.71805700     16.91837700
H          10.28697000      7.99010400     16.00807300
H           9.69372400      8.60426900     17.32975000
          45
 Energy =     -0.77501300 a.u.  #Cluster:   12
C           6.12355000      8.23634200     17.76877900
C           6.65694600      9.43312900     18.24036000
C           4.73855100      9.90225900     17.13233800
N           4.93399000      8.54229300     17.09723700
H           6.55461000      7.23444100     17.80619300
H           7.59424400      9.60052100     18.76099700
H           3.90240700     10.44051000     16.65593400
C           4.03897900      7.58398200     16.44937600
H           3.74348800      6.77771800     17.13776400
H           3.13025200      8.08241400     16.04757200
H           4.55786000      7.10993100     15.56136400
N           5.79416500     10.46416400     17.83737800
C           5.95038100     11.91616600     18.08300600
H           5.65599000     12.12019200     19.14283100
H           5.22580900     12.46792800     17.43642200
C           7.37585600     12.44173800     17.84338900
H           7.43844000     13.45370300     18.30293500
H           8.11541900     11.82418200     18.41022400
C           7.78470100     12.53621500     16.37942500
H           8.55174100     13.33229100     16.25503500
H           6.94283100     12.88897400     15.74861400
S           8.40968900     10.99525100     15.77358700
O           7.28967000     10.36904700     14.99825200
O           9.59706300     11.21897900     14.92968000
O           8.76583800     10.17431300     16.98118900
P           7.42456800      7.02457700     14.62199300
O           5.96225100      7.16544500     14.30520800
O           7.87354000      6.91915000     16.08858600
H           9.15363200      7.31116700     16.41020800
O           8.14017900      5.76775000     13.82869600
H           7.86212900      5.61680300     12.89388700
O           8.28087800      8.27319200     13.94075400
H           7.79104600      9.19424300     13.92279700
O          10.80499400      8.88192300     14.45293900
H          10.63979900      9.87364500     14.52040600
H          10.10093800      8.55925500     13.83943300
O           4.90209500      9.57721400     13.63580600
H           5.63323000     10.01779300     14.11296200
H           5.13383700      8.60576000     13.66761500
O           2.83121700     10.01514600     15.13183700
H           3.56516700      9.79863900     14.44959500
H           2.12723400     10.40861400     14.63896100
O          10.07542600      7.94980300     16.71611200
H          10.45778700      8.29132800     15.74473800
H           9.59759400      8.81188600     17.05762300
          45
 Energy =     -0.77486600 a.u.  #Cluster:   13
C           5.88058600      7.99596400     17.88569400
C           6.30546400      9.12121900     18.58099300
C           4.80915600      9.78594700     17.01084000
N           4.93649900      8.41959400     16.93562500
H           6.22067100      6.96675600     17.95620400
H           7.04759900      9.20343900     19.35828300
H           4.19809500     10.40529300     16.32719400
C           4.21908700      7.56650100     15.98738500
H           3.28568500      8.05425300     15.63296300
H           4.84876000      7.39476400     15.06579000
H           3.98679100      6.58285400     16.42112100
N           5.62197100     10.23080200     18.04428400
C           5.79883600     11.64820700     18.43139600
H           5.50836900     11.75211000     19.50513600
H           5.08389300     12.27073800     17.84175100
C           7.23527700     12.16778300     18.23760200
H           7.32603700     13.12247100     18.80039600
H           7.96477400     11.47294400     18.72207800
C           7.63807000     12.40302100     16.78758500
H           8.50613800     13.09315800     16.74415300
H           6.84635200     12.93719900     16.22731300
S           8.03546400     10.86339600     15.99679800
O           6.74060000     10.29578300     15.53858300
O           8.93761400     11.11517500     14.84694500
O           8.67937900     10.03576900     17.06224200
P           7.66245500      6.83280500     14.63624400
O           6.43842500      7.38790800     14.00520000
O           7.65463000      6.57451800     16.21464000
H           8.59782600      7.01429800     16.77337900
O           8.03294400      5.36921800     13.97401300
H           8.77752800      4.86767800     14.38189800
O           9.03258800      7.68792400     14.50724400
H           9.12740200      8.46087900     13.69279000
O           9.40118100      9.66990800     12.99446500
H           8.55574300     10.18054700     13.08611800
H           9.97750700     10.13769800     13.66896900
O           5.38679000      9.62377900     13.29242900
H           6.03035000      9.71449400     14.05333400
H           5.47435200      8.68602900     13.02808700
O           3.24192200     10.03026900     14.70729300
H           4.05540100      9.82371200     14.10294700
H           2.68455500     10.59022800     14.18890900
O           9.76051200      7.68561600     17.02917400
H          10.09144000      7.84270800     16.10395100
H           9.38529800      8.61466300     17.28058900
          45
 Energy =     -0.77481300 a.u.  #Cluster:   14
C           5.36189100      8.34034400     19.11473600
C           5.25990500      9.72649700     19.11906700
C           5.48002900      9.05090700     16.96645900
N           5.49162700      7.93565700     17.77604800
H           5.35570200      7.65240000     19.94427200
H           5.14587700     10.40011400     19.95182500
H           5.59917800      9.05944100     15.85029800
C           5.63929400      6.55141600     17.31846800
H           5.12645800      6.40945800     16.33732900
H           6.72208900      6.31470400     17.14630400
H           5.22499200      5.83420900     18.04124300
N           5.33068700     10.15606300     17.78308500
C           5.25570500     11.56378500     17.33611200
H           4.36153200     12.03740500     17.80270300
H           5.02762500     11.57394500     16.22537300
C           6.54008600     12.34052400     17.66723100
H           6.26337200     13.28797600     18.17661000
H           7.16111900     11.78448200     18.40836700
C           7.38295200     12.66485900     16.44034900
H           8.21159300     13.34974400     16.72219300
H           6.79776800     13.25552500     15.70415800
S           8.02141500     11.19813700     15.69692600
O           6.89951000     10.50312300     15.01906500
O           9.08654300     11.62059500     14.73457400
O           8.58207700     10.33504300     16.78285500
P           7.21061400      7.09210700     14.23391100
O           5.82444600      7.59548900     14.46146300
O           8.01692700      6.91609000     15.58058300
H           9.05389900      7.49938900     15.77302700
O           7.20562400      5.62743000     13.48168600
H           7.97652400      5.44184400     12.88584200
O           8.17017600      7.87470800     13.17264400
H           8.47432900      8.84399100     13.37871600
O           9.94390100      9.48801000     13.82595500
H          10.52333200      9.34138700     13.08732400
H           9.85544200     10.52084500     13.94767400
O           4.74831300      9.86415500     13.48349200
H           5.63021000     10.23533600     13.71188700
H           4.86409200      8.88772000     13.57982900
O           3.32583900     10.90186300     15.40586900
H           3.82714400     10.36399900     14.70152800
H           2.60796000     11.30497500     14.93985700
O          10.03060700      8.26981800     16.17432800
H          10.32546700      8.72233500     15.32711800
H           9.49614100      9.02217500     16.66166000
          45
 Energy =     -0.76989400 a.u.  #Cluster:   15
C           6.12406100      7.83783900     18.00239000
C           6.55648100      8.99362500     18.63790600
C           5.00142500      9.58194900     17.09078700
N           5.14775000      8.21329500     17.06391900
H           6.46386600      6.81306100     18.11517900
H           7.28928600      9.10875800     19.41830800
H           4.33966300     10.16390000     16.40844500
C           4.43094000      7.31627100     16.15316000
H           3.36670200      7.61816800     16.05425400
H           4.88215800      7.37684000     15.12269000
H           4.49867900      6.26750000     16.48078600
N           5.84634000     10.07461400     18.07311500
C           6.02999500     11.50356100     18.40974500
H           5.86713000     11.62506100     19.50769200
H           5.23200000     12.09578200     17.89900000
C           7.42156200     12.04256400     18.02757200
H           7.65617900     12.89001100     18.70932000
H           8.20866500     11.28088600     18.23811100
C           7.53815900     12.52266400     16.58735900
H           8.43065500     13.17607400     16.48050300
H           6.69614100     13.18854400     16.31295000
S           7.64912200     11.15416800     15.46599700
O           6.28144500     10.59215900     15.37867100
O           8.22000200     11.60654300     14.17972600
O           8.63942400     10.18570200     16.07137200
P           7.73020200      6.91215100     14.57451400
O           6.53704600      7.59865300     14.02303900
O           7.67916600      6.59708200     16.16584800
H           8.49932800      7.07500300     16.75388900
O           7.92096300      5.42550400     13.89398700
H           8.73887000      4.92654000     14.13960300
O           9.17808300      7.58844700     14.46920300
H           9.34196900      8.55924400     13.87678600
O           9.97125400      9.79949100     13.77845200
H           9.31091800     10.47041000     13.40078000
H           9.98260500     10.01933900     14.75268800
O           4.85628200      9.39130200     13.36915900
H           5.60828600      9.70682800     13.94329300
H           5.12466300      8.49343700     13.10434500
O           2.98854400      9.61521600     15.16161500
H           3.67181500      9.43536000     14.41006400
H           2.35646900     10.20680500     14.77835900
O           9.45753200      8.10104900     17.18235000
H           9.95023000      8.20223200     16.32858500
H           8.87795500      8.92639100     17.18452000
