          29
 Energy =   -992.59097690 a.u.  #Cluster:    1
C          18.19976600      1.98230000      8.65759300
H          18.92187400      2.75855500      8.36637900
H          17.26509700      2.18161100      8.06905900
H          18.58232700      1.00127900      8.34704800
C          16.86187400      0.96275000     10.43952100
H          17.21177200     -0.00483100     10.03022100
H          15.92905700      1.22507300      9.85033900
C          17.41987500      3.40072700     10.48257700
H          17.11696300      3.48379900     11.55701200
H          18.16388000      4.16945700     10.25510600
H          16.47594800      3.64793100      9.94080300
C          19.17418300      1.74341900     10.88261400
H          19.97487300      2.44253700     10.59094100
H          19.01940100      1.85544200     11.97187600
H          19.52710600      0.71695700     10.69628400
C          16.52815200      0.82426100     11.93342600
H          16.95728800      1.66115700     12.52893900
H          17.00412700     -0.09165300     12.33627000
C          15.02523800      0.76495400     12.18180700
H          14.81292800      0.55849100     13.24307300
H          14.54541800     -0.04452200     11.61232800
N          17.90445500      2.02751400     10.13135600
S          14.19912300      2.34823900     11.73963400
O          15.18496500      3.36889300     12.16199200
O          14.16003800      2.23892200     10.24150100
O          12.90793200      2.33450300     12.41158600
O          15.37078200      2.80628200      7.97970100
H          14.87192000      2.63839300      8.84066900
H          14.68365800      3.00756100      7.36036700
          29
 Energy =   -992.59047140 a.u.  #Cluster:    2
C          18.23749500      2.03635100      8.68161700
H          18.93506300      2.84369200      8.41561800
H          17.30433600      2.21798800      8.08498600
H          18.65892600      1.07551000      8.35954500
C          16.90019900      0.94768600     10.42152300
H          17.28127600     -0.00286200     10.00010000
H          15.97104000      1.19747400      9.82142000
C          17.39576400      3.39750200     10.52260100
H          17.04532300      3.44327700     11.58358500
H          18.13297900      4.18571900     10.34742900
H          16.47073500      3.64453300      9.94368200
C          19.18470800      1.77584800     10.91667400
H          19.97331600      2.49782400     10.64867400
H          19.01152400      1.86576200     12.00509700
H          19.56378000      0.76107400     10.71827500
C          16.54642500      0.77176500     11.90679800
H          16.92805500      1.61772800     12.52164800
H          17.05421200     -0.12877600     12.30532500
C          15.04319100      0.64402300     12.12585800
H          14.82091200      0.41366600     13.18025900
H          14.61010200     -0.17817600     11.53710900
N          17.91982900      2.04434100     10.15168200
S          14.15611200      2.19444100     11.68802700
O          15.09467100      3.25318400     12.12139300
O          14.13135000      2.09275900     10.18650700
O          12.86162700      2.12305000     12.34930900
O          15.45607000      3.00011400      8.13217900
H          14.90050700      2.68242400      8.92208800
H          14.81050600      3.34207900      7.53100600
