          29
 G =       -0.125157 Gcorr = 0.181738 a.u. Nimag =   0 Frame:     1 Step:     1 Geom:     1
C          18.37712200      2.11737000      8.81912000
H          19.08711500      2.93332400      8.62172900
H          17.48909700      2.30300700      8.15834600
H          18.82747700      1.16603400      8.50721700
C          16.93485200      0.97390100     10.43682600
H          17.35959400      0.03845300     10.02351100
H          16.04593800      1.22359800      9.77850400
C          17.38267300      3.42794100     10.62031000
H          16.98439300      3.45467100     11.66630300
H          18.11019100      4.23389700     10.48868200
H          16.47956900      3.66021800     10.00705800
C          19.16481700      1.82571100     11.11081600
H          19.95751100      2.56655300     10.91654000
H          18.91196300      1.88774600     12.18564900
H          19.57542200      0.82204200     10.91863000
C          16.47981900      0.76081400     11.88933000
H          16.82100500      1.58786700     12.55167600
H          16.95695200     -0.15234200     12.29712100
C          14.96487500      0.63404100     12.00242300
H          14.67080000      0.37493600     13.03224300
H          14.56985000     -0.16825400     11.36213300
N          17.95382100      2.09040700     10.26182500
S          14.11473900      2.20216100     11.55186300
O          15.01682100      3.24047100     12.09972900
O          14.20984200      2.15628900     10.05297900
O          12.77193700      2.11011900     12.10624300
O          15.58484200      2.85294700      7.92464100
H          15.02171200      2.63420300      8.73295600
H          14.94527000      3.05187500      7.25561000
          29
 G =       -0.124255 Gcorr = 0.182640 a.u. Nimag =   0 Frame:     2 Step:     2 Geom:     2
C          18.36851000      2.01288700      8.84537500
H          19.06940600      2.82815800      8.61533800
H          17.48573600      2.15270000      8.16648200
H          18.83557800      1.05381900      8.58621900
C          16.92339200      0.93063700     10.50211500
H          17.36605000     -0.01815700     10.14145000
H          16.03928600      1.13406200      9.82160300
C          17.33519100      3.39694100     10.56808700
H          16.92416400      3.46969100     11.60678700
H          18.05315000      4.20566000     10.40466900
H          16.43637800      3.58568000      9.93387100
C          19.13336100      1.84666600     11.15724400
H          19.91766200      2.58877300     10.93565400
H          18.86697000      1.95736400     12.22484900
H          19.56049200      0.84099400     11.01909600
C          16.45348900      0.78435200     11.95814100
H          16.77394400      1.64915900     12.58148200
H          16.93906200     -0.09943800     12.41741900
C          14.93930800      0.63995200     12.05982100
H          14.63621900      0.42992800     13.09816400
H          14.56449400     -0.20047300     11.45740900
N          17.92884200      2.05154300     10.28289000
S          14.07142900      2.16912600     11.51832500
O          14.95123600      3.24848600     12.02114600
O          14.18542200      2.04640200     10.02501600
O          12.72352500      2.08537500     12.06150600
O          15.57724200      2.66796600      7.88495100
H          15.00704600      2.47753800      8.69558600
H          14.94344500      2.82421200      7.19932200
          29
 G =       -0.124223 Gcorr = 0.182672 a.u. Nimag =   0 Frame:     3 Step:     3 Geom:     3
C          18.27634400      2.18188200      8.76697800
H          19.00561600      2.98757500      8.60002900
H          17.36161400      2.45493700      8.17668600
H          18.67196600      1.24701200      8.34907300
C          16.88013600      0.95058700     10.36038100
H          17.24497700      0.04089500      9.84500500
H          15.96760900      1.28744500      9.77731700
C          17.43338900      3.36200000     10.72855500
H          17.09385400      3.31003700     11.79396600
H          18.18385100      4.15084900     10.62511000
H          16.50819300      3.67844000     10.19040800
C          19.17509300      1.66224600     10.97594800
H          19.98436300      2.39000900     10.80163900
H          18.98332800      1.63698300     12.06479700
H          19.53532600      0.66623000     10.67412100
C          16.49574600      0.62689600     11.81285100
H          16.90305900      1.38131700     12.52285000
H          16.95890900     -0.33369800     12.11369600
C          14.98530900      0.54128500     12.00036800
H          14.73714800      0.20438100     13.01968100
H          14.52645200     -0.18925000     11.31811700
N          17.93121200      2.04237400     10.22391000
S          14.17233700      2.16976400     11.73202300
O          15.14153100      3.12671900     12.31228200
O          14.18444400      2.24907900     10.23147600
O          12.85896600      2.07541300     12.35254600
O          15.47096800      3.09413300      8.10214600
H          14.94334500      2.82046700      8.91771900
H          14.80493300      3.37399300      7.49033600
          29
 G =       -0.124973 Gcorr = 0.181849 a.u. Nimag =   0 Frame:     4 Step:     4 Geom:     4
C          18.23749500      2.03635100      8.68161700
H          18.93506300      2.84369200      8.41561800
H          17.30433600      2.21798800      8.08498600
H          18.65892600      1.07551000      8.35954500
C          16.90019900      0.94768600     10.42152300
H          17.28127600     -0.00286200     10.00010000
H          15.97104000      1.19747400      9.82142000
C          17.39576400      3.39750200     10.52260100
H          17.04532300      3.44327700     11.58358500
H          18.13297900      4.18571900     10.34742900
H          16.47073500      3.64453300      9.94368200
C          19.18470800      1.77584800     10.91667400
H          19.97331600      2.49782400     10.64867400
H          19.01152400      1.86576200     12.00509700
H          19.56378000      0.76107400     10.71827500
C          16.54642500      0.77176500     11.90679800
H          16.92805500      1.61772800     12.52164800
H          17.05421200     -0.12877600     12.30532500
C          15.04319100      0.64402300     12.12585800
H          14.82091200      0.41366600     13.18025900
H          14.61010200     -0.17817600     11.53710900
N          17.91982900      2.04434100     10.15168200
S          14.15611200      2.19444100     11.68802700
O          15.09467100      3.25318400     12.12139300
O          14.13135000      2.09275900     10.18650700
O          12.86162700      2.12305000     12.34930900
O          15.45607000      3.00011400      8.13217900
H          14.90050700      2.68242400      8.92208800
H          14.81050600      3.34207900      7.53100600
          29
 G =       -0.124166 Gcorr = 0.182729 a.u. Nimag =   0 Frame:     5 Step:     5 Geom:     5
C          18.33275100      2.06374900      8.72906000
H          19.06494800      2.85441800      8.51105100
H          17.43015400      2.28507900      8.09976500
H          18.73724000      1.09841400      8.39787800
C          16.90622400      0.96379200     10.39030800
H          17.28323900      0.01575300      9.95984800
H          16.00533000      1.24803400      9.76282000
C          17.44755900      3.39929900     10.56862200
H          17.08670500      3.43464900     11.62766300
H          18.19837800      4.17959000     10.41495900
H          16.53269200      3.66673900      9.98784200
C          19.18685900      1.73190400     10.99122700
H          19.99825700      2.44553900     10.77368900
H          18.97288900      1.79624500     12.07431100
H          19.55496700      0.71559100     10.78028700
C          16.49253700      0.76037000     11.85650700
H          16.88377400      1.57250700     12.50958800
H          16.95112000     -0.17033800     12.24543500
C          14.97873800      0.68534500     12.01962200
H          14.71014600      0.43353700     13.05815100
H          14.53536800     -0.10104500     11.39135700
N          17.95798100      2.04418200     10.18521500
S          14.16861000      2.28302200     11.60003400
O          15.12365300      3.28839900     12.11871600
O          14.21203400      2.23737300     10.09872400
O          12.84267800      2.23588100     12.19889900
O          15.54082300      2.90939800      7.93357900
H          14.99583600      2.70072300      8.75676100
H          14.88854100      3.14185100      7.28809100
          29
 G =       -0.124064 Gcorr = 0.182832 a.u. Nimag =   0 Frame:     6 Step:     6 Geom:     6
C          18.30472700      2.02564900      8.69124700
H          19.03087600      2.81576300      8.45180700
H          17.39056200      2.23852300      8.07591800
H          18.70566000      1.05782100      8.36308500
C          16.90795700      0.94273000     10.38846100
H          17.27701800     -0.00957300      9.96052300
H          15.99607000      1.22113700      9.77445700
C          17.45295800      3.37968500     10.53305600
H          17.11049400      3.42549000     11.59780100
H          18.20137600      4.15797500     10.35893000
H          16.52832400      3.64198000      9.96559800
C          19.19907200      1.71579000     10.94105700
H          20.00744000      2.42536400     10.70024400
H          19.00502800      1.79328500     12.02702700
H          19.56170400      0.69638900     10.73554200
C          16.52063900      0.75377600     11.86377500
H          16.92381300      1.57202800     12.50176300
H          16.98586300     -0.17330800     12.25343700
C          15.00997100      0.68098600     12.05477500
H          14.76003700      0.43933800     13.10036500
H          14.55524200     -0.11127300     11.44220300
N          17.95610000      2.02062900     10.15400200
S          14.19270000      2.27479800     11.63444500
O          15.15728100      3.28471700     12.12596300
O          14.20889400      2.21459100     10.13310000
O          12.87783300      2.23411600     12.25764600
O          15.49889400      2.86336500      7.93818600
H          14.96959800      2.66448600      8.77415300
H          14.83389100      3.08374000      7.30145200
          29
 G =       -0.124972 Gcorr = 0.181850 a.u. Nimag =   0 Frame:     7 Step:     7 Geom:     7
C          18.27326100      2.02383200      8.69408100
H          18.98285600      2.81775500      8.41976300
H          17.34151500      2.21552300      8.09831700
H          18.67838600      1.05381800      8.37873600
C          16.92338300      0.97079200     10.44615800
H          17.28826000      0.01086500     10.03179100
H          15.99683000      1.23033000      9.84608400
C          17.45850700      3.41307700     10.52617700
H          17.11117100      3.47297800     11.58752100
H          18.20791400      4.18788000     10.34318300
H          16.53615400      3.67056300      9.94751100
C          19.22217800      1.76604200     10.92877900
H          20.02124300      2.47361900     10.65355600
H          19.05305600      1.86647000     12.01686800
H          19.58481200      0.74407200     10.73676900
C          16.57042800      0.81282600     11.93369300
H          16.96676000      1.65780100     12.54054100
H          17.06499300     -0.09223800     12.33853600
C          15.06587400      0.71044600     12.15709100
H          14.84236100      0.49245200     13.21380700
H          14.61866100     -0.10968900     11.57610200
N          17.95967900      2.04876400     10.16485700
S          14.20226900      2.27086400     11.70786500
O          15.15839900      3.31839900     12.12987600
O          14.17256800      2.15644300     10.20728900
O          12.90834600      2.22579800     12.37253200
O          15.50674000      3.02876500      8.14385300
H          14.94810700      2.72522400      8.93709700
H          14.86530700      3.37652800      7.54158700
          29
 G =       -0.124181 Gcorr = 0.182714 a.u. Nimag =   0 Frame:     8 Step:     9 Geom:     9
C          18.26777300      2.14592000      8.73548500
H          18.96666300      2.96696100      8.52043100
H          17.34630200      2.34627000      8.12678600
H          18.70076400      1.20260900      8.37792700
C          16.91178000      0.96347800     10.39907900
H          17.31408000      0.03812400      9.94294000
H          15.99005200      1.22759800      9.79337600
C          17.36999500      3.41277700     10.61696800
H          17.02661900      3.41426700     11.68245500
H          18.09028000      4.22203400     10.46695500
H          16.43640500      3.65926100     10.05719100
C          19.17447200      1.80051000     10.97512700
H          19.95629700      2.54632100     10.75726800
H          18.97833500      1.83657800     12.06288300
H          19.57391600      0.80199600     10.73776700
C          16.53247500      0.71682900     11.86791900
H          16.90658800      1.52954900     12.53023700
H          17.03076600     -0.20427700     12.22985200
C          15.02547800      0.58453300     12.05612500
H          14.78511200      0.30313500     13.09398000
H          14.59886200     -0.20487100     11.42008600
N          17.92077400      2.08450100     10.19733800
S          14.15164200      2.15997400     11.68307900
O          15.07996600      3.18857200     12.20468300
O          14.16890800      2.14506200     10.18054900
O          12.83951900      2.05389100     12.30435400
O          15.43340700      2.90591600      8.00680600
H          14.91235200      2.66372300      8.83641300
H          14.76043600      3.11875800      7.37595200
          29
 G =       -0.124079 Gcorr = 0.182816 a.u. Nimag =   0 Frame:     9 Step:    10 Geom:    10
C          18.26753200      2.17952000      8.73007400
H          18.98284800      2.99084000      8.53280900
H          17.34649000      2.41692300      8.13440000
H          18.67720500      1.23747800      8.34291800
C          16.89996600      0.97833000     10.37062400
H          17.28018000      0.05845100      9.88534200
H          15.97918400      1.27779100      9.78021300
C          17.40824600      3.41107700     10.65253600
H          17.07326800      3.38996800     11.72051100
H          18.14305600      4.21001100     10.51865600
H          16.47529900      3.69073700     10.10742500
C          19.18294400      1.75433400     10.95236300
H          19.97784100      2.49046400     10.74939000
H          18.99524400      1.76401900     12.04218200
H          19.56085900      0.75519400     10.68443700
C          16.52705400      0.69765500     11.83503300
H          16.92330600      1.48314300     12.51702800
H          17.00885300     -0.24354800     12.16640800
C          15.01915400      0.59108400     12.03221300
H          14.78123600      0.28469300     13.06355900
H          14.57107500     -0.17052300     11.37734700
N          17.92964900      2.08438900     10.19228100
S          14.17563800      2.19449800     11.71238200
O          15.12898900      3.18790600     12.25675900
O          14.18166400      2.22365000     10.21011400
O          12.86606400      2.09723900     12.34050700
O          15.44319900      3.01551700      8.04463100
H          14.92253500      2.75979600      8.87012400
H          14.77144800      3.26936100      7.42774800
          29
 G =       -0.124211 Gcorr = 0.182684 a.u. Nimag =   0 Frame:    10 Step:    11 Geom:    11
C          18.25974000      2.20288000      8.73063700
H          18.95736500      3.02516300      8.51618300
H          17.32704000      2.41717800      8.14411800
H          18.68195700      1.26465100      8.34765300
C          16.93275800      0.99562700     10.39967600
H          17.32228900      0.07725500      9.91899400
H          15.99994500      1.27396200      9.81769800
C          17.40455700      3.43917200     10.65198700
H          17.08329000      3.42280000     11.72416700
H          18.12477200      4.24834900     10.50137900
H          16.46068200      3.69846200     10.11584500
C          19.20966400      1.81445200     10.94516500
H          19.99008900      2.56087500     10.72441500
H          19.03552900      1.83250100     12.03711600
H          19.60017100      0.81868300     10.68269000
C          16.58220000      0.72370800     11.87119100
H          16.97278500      1.52297300     12.54033900
H          17.08425200     -0.20552700     12.20628900
C          15.07888900      0.59315400     12.08756000
H          14.85846400      0.29409100     13.12496900
H          14.63651900     -0.18330100     11.44645900
N          17.94176900      2.11653800     10.19777500
S          14.20363900      2.17805700     11.76056800
O          15.14610300      3.19384200     12.28175600
O          14.19048600      2.19025100     10.25802400
O          12.90390200      2.06526800     12.40625300
O          15.41376200      2.98580200      8.07279500
H          14.90869600      2.73025600      8.90823800
H          14.72870600      3.21287900      7.46007300
          29
 G =       -0.124412 Gcorr = 0.182483 a.u. Nimag =   0 Frame:    11 Step:    12 Geom:    12
C          18.41503300      2.06206700      8.81934000
H          19.11787600      2.87760700      8.59631200
H          17.53929700      2.20115600      8.13124000
H          18.88523300      1.10313800      8.56532600
C          16.95432400      0.97875100     10.46167700
H          17.40232500      0.03026800     10.10683200
H          16.07730100      1.18017000      9.77137800
C          17.36201400      3.44572300     10.53040100
H          16.94024300      3.51863000     11.56468200
H          18.08050100      4.25529800     10.37373600
H          16.46938300      3.63279400      9.88690000
C          19.15604900      1.89825700     11.13916700
H          19.94138800      2.64164900     10.92568500
H          18.87828400      2.00865100     12.20389300
H          19.58631500      0.89329100     11.00566200
C          16.46885800      0.83322100     11.91267900
H          16.78109800      1.69926100     12.53850700
H          16.95089800     -0.04922100     12.37818800
C          14.95389300      0.68634500     11.99810000
H          14.63983400      0.47741300     13.03338800
H          14.58715300     -0.15568800     11.39294800
N          17.96041300      2.10094800     10.25220300
S          14.08940000      2.21309800     11.44454200
O          14.96152500      3.29489400     11.95541100
O          14.22053900      2.08801800      9.95281100
O          12.73561900      2.12785700     11.97261600
O          15.63344300      2.71465200      7.82819700
H          15.05503900      2.52248500      8.63249200
H          15.00674100      2.86926600      7.13570300
          29
 G =       -0.123741 Gcorr = 0.183153 a.u. Nimag =   0 Frame:    12 Step:    13 Geom:    13
C          18.25528400      2.10136500      8.73727200
H          18.95552400      2.91215000      8.49010200
H          17.32944700      2.28580300      8.13017700
H          18.68163700      1.14526900      8.40671700
C          16.91104900      0.97669300     10.44966200
H          17.30841200      0.03583900     10.02175400
H          15.98530500      1.22219600      9.84220100
C          17.37555800      3.43090600     10.58376100
H          17.04134900      3.46801500     11.65132800
H          18.09591000      4.23329600     10.40087600
H          16.43755400      3.66079600     10.02415800
C          19.17998000      1.82730400     10.97944100
H          19.96066900      2.56520700     10.73246900
H          18.99255600      1.89713900     12.06707400
H          19.57677800      0.82154300     10.76985600
C          16.54235200      0.77996800     11.92872000
H          16.92153700      1.61446400     12.56036400
H          17.04290200     -0.12870000     12.31798700
C          15.03672000      0.65515400     12.13238600
H          14.80381900      0.41044800     13.18118200
H          14.60528800     -0.15584500     11.52749900
N          17.92037700      2.08841600     10.20317800
S          14.16060400      2.21697500     11.71061600
O          15.09343200      3.26281600     12.18798500
O          14.16613800      2.14848700     10.20944300
O          12.85335100      2.13393100     12.34554000
O          15.41640500      2.84792000      8.00692500
H          14.90084900      2.62923100      8.84645600
H          14.73923500      3.04321500      7.37488500
          29
 G =       -0.123858 Gcorr = 0.183037 a.u. Nimag =   0 Frame:    13 Step:    14 Geom:    14
C          18.29909600      2.14489900      8.75688800
H          19.00371100      2.95922500      8.53502900
H          17.38234300      2.34193300      8.14008700
H          18.72919300      1.19459700      8.41470000
C          16.92739400      0.99178700     10.42819000
H          17.32778600      0.05840300      9.98688500
H          16.01055600      1.25220000      9.81363300
C          17.39645200      3.44158700     10.61563600
H          17.04709500      3.45928600     11.67901700
H          18.12150400      4.24521700     10.45861800
H          16.46721600      3.68481500     10.04719700
C          19.19075900      1.82551800     11.00643300
H          19.97749100      2.56458200     10.78332500
H          18.98832300      1.87720500     12.09241800
H          19.58673700      0.82200500     10.78492500
C          16.53833500      0.76668600     11.89793800
H          16.91275100      1.58628400     12.55155600
H          17.02986500     -0.15199900     12.27504300
C          15.02962800      0.64437800     12.07906700
H          14.78183400      0.37786800     13.11910600
H          14.60272700     -0.15121300     11.45098000
N          17.94311500      2.10502800     10.21736500
S          14.16590900      2.21910500     11.68029300
O          15.09656000      3.24984000     12.19353900
O          14.19145600      2.18424600     10.17824800
O          12.84983000      2.12784800     12.29550900
O          15.47259400      2.90918500      8.00193100
H          14.94529800      2.68005100      8.83139900
H          14.80446800      3.11943300      7.36506300
          29
 G =       -0.124107 Gcorr = 0.182788 a.u. Nimag =   0 Frame:    14 Step:    15 Geom:    15
C          18.27345200      2.08687500      8.69264200
H          18.97979800      2.88649500      8.42704700
H          17.34142500      2.27650100      8.09678100
H          18.68348000      1.12229200      8.36616700
C          16.93669700      0.99979500     10.43501300
H          17.31259000      0.04910500     10.00938700
H          16.00565300      1.25462700      9.83979400
C          17.44100700      3.44759000     10.53834100
H          17.12248300      3.50001000     11.61027200
H          18.17116600      4.23683900     10.33801600
H          16.49893900      3.68684500      9.98974000
C          19.22594700      1.81995700     10.92397600
H          20.01488600      2.54199500     10.65715300
H          19.05576100      1.90523100     12.01336200
H          19.60296900      0.80544200     10.72025200
C          16.58775600      0.82158000     11.92119500
H          16.99112700      1.65433900     12.54000500
H          17.07859900     -0.09248100     12.31023800
C          15.08355600      0.72441700     12.14897000
H          14.86280700      0.49076500     13.20291100
H          14.62870900     -0.08290500     11.55648500
N          17.95945800      2.09321400     10.16323400
S          14.22819500      2.29852300     11.73014400
O          15.18598000      3.33096900     12.18695700
O          14.20982000      2.22102500     10.22962800
O          12.92943300      2.24197000     12.38509800
O          15.43588300      2.86564500      7.99667500
H          14.93035900      2.66790200      8.84731900
H          14.75208500      3.06543800      7.37320700
          29
 G =       -0.124224 Gcorr = 0.182671 a.u. Nimag =   0 Frame:    15 Step:    16 Geom:    16
C          18.36540900      2.08166600      8.76684000
H          19.07853800      2.89327000      8.56294900
H          17.47775500      2.26584200      8.10514000
H          18.81183000      1.12622800      8.46188900
C          16.91906800      0.95654300     10.39372600
H          17.33979000      0.01601600      9.98796600
H          16.03125000      1.20474600      9.73319000
C          17.37762900      3.40991700     10.55877200
H          16.97947700      3.44594100     11.60441700
H          18.10877200      4.21159500     10.42123300
H          16.47551500      3.64180000      9.94383900
C          19.15300900      1.80358800     11.06029800
H          19.94882300      2.53954300     10.86024500
H          18.90093200      1.87454100     12.13474500
H          19.55920300      0.79677400     10.87530400
C          16.46307500      0.75707900     11.84784900
H          16.80660700      1.58868900     12.50324100
H          16.93731600     -0.15404100     12.26345600
C          14.94772500      0.63591100     11.96170700
H          14.65261300      0.38759000     12.99385100
H          14.55052700     -0.17130900     11.32896700
N          17.94276700      2.06726400     10.20992100
S          14.10240400      2.20210500     11.49560400
O          15.00787800      3.24312500     12.03257500
O          14.19709000      2.14044400      9.99719300
O          12.75945600      2.12004900     12.05118200
O          15.57614500      2.82756600      7.86869800
H          15.01166500      2.61309800      8.67725900
H          14.93775300      3.02441800      7.19795900
          29
 G =       -0.123958 Gcorr = 0.182937 a.u. Nimag =   0 Frame:    16 Step:    17 Geom:    17
C          18.21666200      2.25117700      8.71522300
H          18.90933300      3.08481700      8.53066600
H          17.28501300      2.47792200      8.13178600
H          18.64712200      1.32872500      8.30421400
C          16.89178000      0.98079900     10.33859700
H          17.29068100      0.08124000      9.83075400
H          15.95967200      1.27031000      9.76112800
C          17.34361300      3.41841900     10.67134900
H          17.01760600      3.36535100     11.74088400
H          18.05802500      4.23764000     10.55009400
H          16.39994900      3.68769800     10.13951500
C          19.15990600      1.79886300     10.92048100
H          19.93500200      2.55866000     10.72847000
H          18.98064700      1.77915100     12.01155700
H          19.55983100      0.81561000     10.62690400
C          16.53649500      0.65946700     11.79898100
H          16.91779200      1.43988700     12.49517200
H          17.04396700     -0.27626200     12.10671000
C          15.03316200      0.51089200     12.00362100
H          14.81017300      0.17679600     13.02968600
H          14.59970600     -0.24771700     11.33553700
N          17.89297800      2.11530600     10.17743100
S          14.14756500      2.09896700     11.72356100
O          15.07988600      3.10441800     12.28188400
O          14.14160100      2.15955900     10.22209000
O          12.84564200      1.95578700     12.35870700
O          15.36900200      3.03326900      8.06973400
H          14.86159300      2.74698800      8.89388900
H          14.68562200      3.27626000      7.46138900
          29
 G =       -0.124132 Gcorr = 0.182762 a.u. Nimag =   0 Frame:    17 Step:    18 Geom:    18
C          18.25916300      2.15679500      8.71670800
H          18.96024800      2.97309500      8.49099900
H          17.33390700      2.35772600      8.11414400
H          18.68476200      1.20921800      8.36147900
C          16.91285300      0.98956700     10.39907000
H          17.30799000      0.06001200      9.94519400
H          15.98676900      1.25315400      9.79969500
C          17.38049100      3.43867700     10.59716200
H          17.04678000      3.44842500     11.66559500
H          18.10166600      4.24482000     10.43508600
H          16.44254900      3.68382700     10.04403700
C          19.18291500      1.82306100     10.95109900
H          19.96516900      2.56509000     10.72218900
H          18.99573100      1.86654700     12.04015200
H          19.57745400      0.82187300     10.71684800
C          16.54535100      0.75337500     11.87258000
H          16.92830400      1.56861900     12.52668100
H          17.04329500     -0.16743000     12.23586700
C          15.03956400      0.62807500     12.07491700
H          14.80734500      0.35462500     13.11673400
H          14.60426900     -0.16387900     11.44799000
N          17.92377300      2.10593200     10.18169800
S          14.16844000      2.20436600     11.69905000
O          15.10434100      3.23275700     12.20718800
O          14.17399900      2.18039600     10.19649900
O          12.86078700      2.10671100     12.33102800
O          15.42126900      2.92267300      8.00571500
H          14.90722900      2.68314300      8.84023100
H          14.74361000      3.14874900      7.38437800
          29
 G =       -0.124157 Gcorr = 0.182738 a.u. Nimag =   0 Frame:    18 Step:    19 Geom:    19
C          18.26533000      2.08352700      8.67599400
H          18.96709400      2.89019600      8.41969900
H          17.33635800      2.26840500      8.07395300
H          18.68579700      1.12395600      8.34800400
C          16.92438000      0.97696500     10.40281100
H          17.31144300      0.03147600      9.97567200
H          15.99596200      1.22696300      9.80149400
C          17.40759000      3.42828000     10.52182600
H          17.08033900      3.47278200     11.59142400
H          18.13269900      4.22449300     10.33094500
H          16.46785500      3.66246500      9.96699600
C          19.20296000      1.81355900     10.91328700
H          19.98807400      2.54308000     10.65567200
H          19.02388600      1.89251200     12.00172700
H          19.58967500      0.80301000     10.70794900
C          16.56532600      0.78884800     11.88535600
H          16.95678000      1.62204100     12.51118900
H          17.06081900     -0.12283000     12.27410100
C          15.06025000      0.67798800     12.10072400
H          14.83309800      0.43753300     13.15178500
H          14.61696900     -0.13031700     11.50090900
N          17.94010900      2.08007600     10.14419100
S          14.19512400      2.24682300     11.68233600
O          15.14063500      3.28509400     12.15144900
O          14.18934300      2.17616200     10.18138500
O          12.89176600      2.17642300     12.32670200
O          15.42711000      2.84280000      7.96141800
H          14.91663200      2.63622600      8.80703300
H          14.74661500      3.04146400      7.33398000
          29
 G =       -0.124009 Gcorr = 0.182886 a.u. Nimag =   0 Frame:    19 Step:    20 Geom:    20
C          18.19976600      1.98230000      8.65759300
H          18.92187400      2.75855500      8.36637900
H          17.26509700      2.18161100      8.06905900
H          18.58232700      1.00127900      8.34704800
C          16.86187400      0.96275000     10.43952100
H          17.21177200     -0.00483100     10.03022100
H          15.92905700      1.22507300      9.85033900
C          17.41987500      3.40072700     10.48257700
H          17.11696300      3.48379900     11.55701200
H          18.16388000      4.16945700     10.25510600
H          16.47594800      3.64793100      9.94080300
C          19.17418300      1.74341900     10.88261400
H          19.97487300      2.44253700     10.59094100
H          19.01940100      1.85544200     11.97187600
H          19.52710600      0.71695700     10.69628400
C          16.52815200      0.82426100     11.93342600
H          16.95728800      1.66115700     12.52893900
H          17.00412700     -0.09165300     12.33627000
C          15.02523800      0.76495400     12.18180700
H          14.81292800      0.55849100     13.24307300
H          14.54541800     -0.04452200     11.61232800
N          17.90445500      2.02751400     10.13135600
S          14.19912300      2.34823900     11.73963400
O          15.18496500      3.36889300     12.16199200
O          14.16003800      2.23892200     10.24150100
O          12.90793200      2.33450300     12.41158600
O          15.37078200      2.80628200      7.97970100
H          14.87192000      2.63839300      8.84066900
H          14.68365800      3.00756100      7.36036700
          29
 G =       -0.123992 Gcorr = 0.182903 a.u. Nimag =   0 Frame:    20 Step:    21 Geom:    21
C          18.23901900      2.05657300      8.71513300
H          18.94140600      2.87167700      8.48891900
H          17.32788900      2.23936900      8.08574000
H          18.67822600      1.10394600      8.39145800
C          16.85552500      0.92026400     10.38804800
H          17.26563400     -0.01731700      9.96490000
H          15.94420500      1.16659800      9.75953800
C          17.30937100      3.37495900     10.54500900
H          16.94748900      3.40566800     11.60381500
H          18.03201700      4.18016400     10.38493900
H          16.38558100      3.60531700      9.96238200
C          19.10794100      1.77470800     10.97855800
H          19.89315900      2.51467300     10.75308100
H          18.89344300      1.84130000     12.06139800
H          19.51149200      0.77020400     10.77613100
C          16.45132600      0.71471500     11.85659700
H          16.81282500      1.54675100     12.50175800
H          16.94466300     -0.19475400     12.25320700
C          14.94146900      0.58500900     12.02261600
H          14.68347600      0.33321500     13.06386100
H          14.52704900     -0.22321500     11.40235700
N          17.86748500      2.03587200     10.17204900
S          14.07199900      2.14742900     11.58931500
O          14.99021100      3.19243200     12.09605300
O          14.11434500      2.08897000     10.08833000
O          12.74982300      2.05703200     12.19145800
O          15.41674600      2.79386700      7.91826800
H          14.88090300      2.57358000      8.74463900
H          14.75530000      2.99099400      7.27046300
